* NGSPICE file created from Microwatt_FP_DFFRFile.ext - technology: sky130B

* Black-box entry subcircuit for sky130_fd_sc_hd__dfxtp_1 abstract view
.subckt sky130_fd_sc_hd__dfxtp_1 CLK D VGND VNB VPB VPWR Q
.ends

* Black-box entry subcircuit for sky130_fd_sc_hd__fill_2 abstract view
.subckt sky130_fd_sc_hd__fill_2 VGND VNB VPB VPWR
.ends

* Black-box entry subcircuit for sky130_fd_sc_hd__decap_6 abstract view
.subckt sky130_fd_sc_hd__decap_6 VGND VNB VPB VPWR
.ends

* Black-box entry subcircuit for sky130_fd_sc_hd__decap_4 abstract view
.subckt sky130_fd_sc_hd__decap_4 VGND VNB VPB VPWR
.ends

* Black-box entry subcircuit for sky130_fd_sc_hd__decap_8 abstract view
.subckt sky130_fd_sc_hd__decap_8 VGND VNB VPB VPWR
.ends

* Black-box entry subcircuit for sky130_fd_sc_hd__o21ba_1 abstract view
.subckt sky130_fd_sc_hd__o21ba_1 A1 A2 B1_N VGND VNB VPB VPWR X
.ends

* Black-box entry subcircuit for sky130_ef_sc_hd__decap_12 abstract view
.subckt sky130_ef_sc_hd__decap_12 VGND VNB VPB VPWR
.ends

* Black-box entry subcircuit for sky130_fd_sc_hd__buf_4 abstract view
.subckt sky130_fd_sc_hd__buf_4 A VGND VNB VPB VPWR X
.ends

* Black-box entry subcircuit for sky130_fd_sc_hd__fill_1 abstract view
.subckt sky130_fd_sc_hd__fill_1 VGND VNB VPB VPWR
.ends

* Black-box entry subcircuit for sky130_fd_sc_hd__buf_6 abstract view
.subckt sky130_fd_sc_hd__buf_6 A VGND VNB VPB VPWR X
.ends

* Black-box entry subcircuit for sky130_fd_sc_hd__a22o_1 abstract view
.subckt sky130_fd_sc_hd__a22o_1 A1 A2 B1 B2 VGND VNB VPB VPWR X
.ends

* Black-box entry subcircuit for sky130_fd_sc_hd__clkbuf_1 abstract view
.subckt sky130_fd_sc_hd__clkbuf_1 A VGND VNB VPB VPWR X
.ends

* Black-box entry subcircuit for sky130_fd_sc_hd__buf_8 abstract view
.subckt sky130_fd_sc_hd__buf_8 A VGND VNB VPB VPWR X
.ends

* Black-box entry subcircuit for sky130_fd_sc_hd__mux2_1 abstract view
.subckt sky130_fd_sc_hd__mux2_1 A0 A1 S VGND VNB VPB VPWR X
.ends

* Black-box entry subcircuit for sky130_fd_sc_hd__clkbuf_4 abstract view
.subckt sky130_fd_sc_hd__clkbuf_4 A VGND VNB VPB VPWR X
.ends

* Black-box entry subcircuit for sky130_fd_sc_hd__decap_3 abstract view
.subckt sky130_fd_sc_hd__decap_3 VGND VNB VPB VPWR
.ends

* Black-box entry subcircuit for sky130_fd_sc_hd__mux4_1 abstract view
.subckt sky130_fd_sc_hd__mux4_1 A0 A1 A2 A3 S0 S1 VGND VNB VPB VPWR X
.ends

* Black-box entry subcircuit for sky130_fd_sc_hd__buf_2 abstract view
.subckt sky130_fd_sc_hd__buf_2 A VGND VNB VPB VPWR X
.ends

* Black-box entry subcircuit for sky130_fd_sc_hd__tapvpwrvgnd_1 abstract view
.subckt sky130_fd_sc_hd__tapvpwrvgnd_1 VGND VPWR
.ends

* Black-box entry subcircuit for sky130_fd_sc_hd__and4b_1 abstract view
.subckt sky130_fd_sc_hd__and4b_1 A_N B C D VGND VNB VPB VPWR X
.ends

* Black-box entry subcircuit for sky130_fd_sc_hd__buf_12 abstract view
.subckt sky130_fd_sc_hd__buf_12 A VGND VNB VPB VPWR X
.ends

* Black-box entry subcircuit for sky130_fd_sc_hd__clkbuf_16 abstract view
.subckt sky130_fd_sc_hd__clkbuf_16 A VGND VNB VPB VPWR X
.ends

* Black-box entry subcircuit for sky130_fd_sc_hd__nor2_8 abstract view
.subckt sky130_fd_sc_hd__nor2_8 A B VGND VNB VPB VPWR Y
.ends

* Black-box entry subcircuit for sky130_fd_sc_hd__clkbuf_8 abstract view
.subckt sky130_fd_sc_hd__clkbuf_8 A VGND VNB VPB VPWR X
.ends

* Black-box entry subcircuit for sky130_fd_sc_hd__or4_4 abstract view
.subckt sky130_fd_sc_hd__or4_4 A B C D VGND VNB VPB VPWR X
.ends

* Black-box entry subcircuit for sky130_fd_sc_hd__o21ba_2 abstract view
.subckt sky130_fd_sc_hd__o21ba_2 A1 A2 B1_N VGND VNB VPB VPWR X
.ends

* Black-box entry subcircuit for sky130_fd_sc_hd__o211a_1 abstract view
.subckt sky130_fd_sc_hd__o211a_1 A1 A2 B1 C1 VGND VNB VPB VPWR X
.ends

* Black-box entry subcircuit for sky130_fd_sc_hd__mux4_2 abstract view
.subckt sky130_fd_sc_hd__mux4_2 A0 A1 A2 A3 S0 S1 VGND VNB VPB VPWR X
.ends

* Black-box entry subcircuit for sky130_fd_sc_hd__or4_1 abstract view
.subckt sky130_fd_sc_hd__or4_1 A B C D VGND VNB VPB VPWR X
.ends

* Black-box entry subcircuit for sky130_fd_sc_hd__nor3_4 abstract view
.subckt sky130_fd_sc_hd__nor3_4 A B C VGND VNB VPB VPWR Y
.ends

* Black-box entry subcircuit for sky130_fd_sc_hd__nor2_4 abstract view
.subckt sky130_fd_sc_hd__nor2_4 A B VGND VNB VPB VPWR Y
.ends

* Black-box entry subcircuit for sky130_fd_sc_hd__clkbuf_2 abstract view
.subckt sky130_fd_sc_hd__clkbuf_2 A VGND VNB VPB VPWR X
.ends

* Black-box entry subcircuit for sky130_fd_sc_hd__nand2_8 abstract view
.subckt sky130_fd_sc_hd__nand2_8 A B VGND VNB VPB VPWR Y
.ends

* Black-box entry subcircuit for sky130_fd_sc_hd__or4_2 abstract view
.subckt sky130_fd_sc_hd__or4_2 A B C D VGND VNB VPB VPWR X
.ends

* Black-box entry subcircuit for sky130_fd_sc_hd__or2_4 abstract view
.subckt sky130_fd_sc_hd__or2_4 A B VGND VNB VPB VPWR X
.ends

* Black-box entry subcircuit for sky130_fd_sc_hd__or3b_1 abstract view
.subckt sky130_fd_sc_hd__or3b_1 A B C_N VGND VNB VPB VPWR X
.ends

* Black-box entry subcircuit for sky130_fd_sc_hd__or2b_4 abstract view
.subckt sky130_fd_sc_hd__or2b_4 A B_N VGND VNB VPB VPWR X
.ends

* Black-box entry subcircuit for sky130_fd_sc_hd__o211a_2 abstract view
.subckt sky130_fd_sc_hd__o211a_2 A1 A2 B1 C1 VGND VNB VPB VPWR X
.ends

* Black-box entry subcircuit for sky130_fd_sc_hd__nand2_4 abstract view
.subckt sky130_fd_sc_hd__nand2_4 A B VGND VNB VPB VPWR Y
.ends

* Black-box entry subcircuit for sky130_fd_sc_hd__nor2b_4 abstract view
.subckt sky130_fd_sc_hd__nor2b_4 A B_N VGND VNB VPB VPWR Y
.ends

* Black-box entry subcircuit for sky130_fd_sc_hd__or2b_2 abstract view
.subckt sky130_fd_sc_hd__or2b_2 A B_N VGND VNB VPB VPWR X
.ends

* Black-box entry subcircuit for sky130_fd_sc_hd__or2_1 abstract view
.subckt sky130_fd_sc_hd__or2_1 A B VGND VNB VPB VPWR X
.ends

* Black-box entry subcircuit for sky130_fd_sc_hd__and2b_1 abstract view
.subckt sky130_fd_sc_hd__and2b_1 A_N B VGND VNB VPB VPWR X
.ends

* Black-box entry subcircuit for sky130_fd_sc_hd__or3_1 abstract view
.subckt sky130_fd_sc_hd__or3_1 A B C VGND VNB VPB VPWR X
.ends

* Black-box entry subcircuit for sky130_fd_sc_hd__and2_1 abstract view
.subckt sky130_fd_sc_hd__and2_1 A B VGND VNB VPB VPWR X
.ends

* Black-box entry subcircuit for sky130_fd_sc_hd__inv_2 abstract view
.subckt sky130_fd_sc_hd__inv_2 A VGND VNB VPB VPWR Y
.ends

* Black-box entry subcircuit for sky130_fd_sc_hd__and4bb_1 abstract view
.subckt sky130_fd_sc_hd__and4bb_1 A_N B_N C D VGND VNB VPB VPWR X
.ends

* Black-box entry subcircuit for sky130_fd_sc_hd__and3_1 abstract view
.subckt sky130_fd_sc_hd__and3_1 A B C VGND VNB VPB VPWR X
.ends

* Black-box entry subcircuit for sky130_fd_sc_hd__dfxtp_2 abstract view
.subckt sky130_fd_sc_hd__dfxtp_2 CLK D VGND VNB VPB VPWR Q
.ends

* Black-box entry subcircuit for sky130_fd_sc_hd__and3b_1 abstract view
.subckt sky130_fd_sc_hd__and3b_1 A_N B C VGND VNB VPB VPWR X
.ends

.subckt Microwatt_FP_DFFRFile CLK D1[0] D1[10] D1[11] D1[12] D1[13] D1[14] D1[15]
+ D1[16] D1[17] D1[18] D1[19] D1[1] D1[20] D1[21] D1[22] D1[23] D1[24] D1[25] D1[26]
+ D1[27] D1[28] D1[29] D1[2] D1[30] D1[31] D1[32] D1[33] D1[34] D1[35] D1[36] D1[37]
+ D1[38] D1[39] D1[3] D1[40] D1[41] D1[42] D1[43] D1[44] D1[45] D1[46] D1[47] D1[48]
+ D1[49] D1[4] D1[50] D1[51] D1[52] D1[53] D1[54] D1[55] D1[56] D1[57] D1[58] D1[59]
+ D1[5] D1[60] D1[61] D1[62] D1[63] D1[6] D1[7] D1[8] D1[9] D2[0] D2[10] D2[11] D2[12]
+ D2[13] D2[14] D2[15] D2[16] D2[17] D2[18] D2[19] D2[1] D2[20] D2[21] D2[22] D2[23]
+ D2[24] D2[25] D2[26] D2[27] D2[28] D2[29] D2[2] D2[30] D2[31] D2[32] D2[33] D2[34]
+ D2[35] D2[36] D2[37] D2[38] D2[39] D2[3] D2[40] D2[41] D2[42] D2[43] D2[44] D2[45]
+ D2[46] D2[47] D2[48] D2[49] D2[4] D2[50] D2[51] D2[52] D2[53] D2[54] D2[55] D2[56]
+ D2[57] D2[58] D2[59] D2[5] D2[60] D2[61] D2[62] D2[63] D2[6] D2[7] D2[8] D2[9] D3[0]
+ D3[10] D3[11] D3[12] D3[13] D3[14] D3[15] D3[16] D3[17] D3[18] D3[19] D3[1] D3[20]
+ D3[21] D3[22] D3[23] D3[24] D3[25] D3[26] D3[27] D3[28] D3[29] D3[2] D3[30] D3[31]
+ D3[32] D3[33] D3[34] D3[35] D3[36] D3[37] D3[38] D3[39] D3[3] D3[40] D3[41] D3[42]
+ D3[43] D3[44] D3[45] D3[46] D3[47] D3[48] D3[49] D3[4] D3[50] D3[51] D3[52] D3[53]
+ D3[54] D3[55] D3[56] D3[57] D3[58] D3[59] D3[5] D3[60] D3[61] D3[62] D3[63] D3[6]
+ D3[7] D3[8] D3[9] DW[0] DW[10] DW[11] DW[12] DW[13] DW[14] DW[15] DW[16] DW[17]
+ DW[18] DW[19] DW[1] DW[20] DW[21] DW[22] DW[23] DW[24] DW[25] DW[26] DW[27] DW[28]
+ DW[29] DW[2] DW[30] DW[31] DW[32] DW[33] DW[34] DW[35] DW[36] DW[37] DW[38] DW[39]
+ DW[3] DW[40] DW[41] DW[42] DW[43] DW[44] DW[45] DW[46] DW[47] DW[48] DW[49] DW[4]
+ DW[50] DW[51] DW[52] DW[53] DW[54] DW[55] DW[56] DW[57] DW[58] DW[59] DW[5] DW[60]
+ DW[61] DW[62] DW[63] DW[6] DW[7] DW[8] DW[9] R1[0] R1[1] R1[2] R1[3] R1[4] R1[5]
+ R2[0] R2[1] R2[2] R2[3] R2[4] R2[5] R3[0] R3[1] R3[2] R3[3] R3[4] R3[5] RW[0] RW[1]
+ RW[2] RW[3] RW[4] RW[5] VGND VPWR WE
X_34984_ _35624_/CLK _34984_/D VGND VGND VPWR VPWR _34984_/Q sky130_fd_sc_hd__dfxtp_1
XFILLER_100_138 VGND VGND VPWR VPWR sky130_fd_sc_hd__fill_2
XFILLER_239_161 VGND VGND VPWR VPWR sky130_fd_sc_hd__decap_6
XFILLER_239_172 VGND VGND VPWR VPWR sky130_fd_sc_hd__decap_4
XFILLER_228_846 VGND VGND VPWR VPWR sky130_fd_sc_hd__decap_8
XFILLER_223_43 VGND VGND VPWR VPWR sky130_fd_sc_hd__decap_8
X_33935_ _36113_/CLK _33935_/D VGND VGND VPWR VPWR _33935_/Q sky130_fd_sc_hd__dfxtp_1
XFILLER_223_54 VGND VGND VPWR VPWR sky130_fd_sc_hd__fill_2
X_18869_ _18865_/X _18868_/X _18726_/X VGND VGND VPWR VPWR _18895_/A sky130_fd_sc_hd__o21ba_1
XFILLER_55_704 VGND VGND VPWR VPWR sky130_fd_sc_hd__decap_6
XFILLER_67_564 VGND VGND VPWR VPWR sky130_ef_sc_hd__decap_12
XFILLER_82_501 VGND VGND VPWR VPWR sky130_fd_sc_hd__decap_8
XFILLER_95_884 VGND VGND VPWR VPWR sky130_ef_sc_hd__decap_12
XFILLER_54_203 VGND VGND VPWR VPWR sky130_fd_sc_hd__decap_8
X_20900_ _22469_/A VGND VGND VPWR VPWR _20900_/X sky130_fd_sc_hd__buf_4
XFILLER_243_816 VGND VGND VPWR VPWR sky130_ef_sc_hd__decap_12
XFILLER_132_1399 VGND VGND VPWR VPWR sky130_fd_sc_hd__fill_1
X_21880_ _22586_/A VGND VGND VPWR VPWR _21880_/X sky130_fd_sc_hd__buf_6
X_33866_ _36105_/CLK _33866_/D VGND VGND VPWR VPWR _33866_/Q sky130_fd_sc_hd__dfxtp_1
X_35605_ _35733_/CLK _35605_/D VGND VGND VPWR VPWR _35605_/Q sky130_fd_sc_hd__dfxtp_1
X_20831_ _20660_/X _20829_/X _20830_/X _20672_/X VGND VGND VPWR VPWR _20831_/X sky130_fd_sc_hd__a22o_1
XFILLER_36_962 VGND VGND VPWR VPWR sky130_fd_sc_hd__decap_8
XFILLER_42_409 VGND VGND VPWR VPWR sky130_fd_sc_hd__decap_8
X_32817_ _35953_/CLK _32817_/D VGND VGND VPWR VPWR _32817_/Q sky130_fd_sc_hd__dfxtp_1
XFILLER_82_578 VGND VGND VPWR VPWR sky130_fd_sc_hd__decap_8
X_33797_ _36159_/CLK _33797_/D VGND VGND VPWR VPWR _33797_/Q sky130_fd_sc_hd__dfxtp_1
XFILLER_78_1172 VGND VGND VPWR VPWR sky130_fd_sc_hd__decap_8
XFILLER_82_589 VGND VGND VPWR VPWR sky130_fd_sc_hd__decap_8
X_20762_ _20648_/X _20760_/X _20761_/X _20658_/X VGND VGND VPWR VPWR _20762_/X sky130_fd_sc_hd__a22o_1
X_23550_ _23550_/A VGND VGND VPWR VPWR _32269_/D sky130_fd_sc_hd__clkbuf_1
X_35536_ _35731_/CLK _35536_/D VGND VGND VPWR VPWR _35536_/Q sky130_fd_sc_hd__dfxtp_1
X_32748_ _32875_/CLK _32748_/D VGND VGND VPWR VPWR _32748_/Q sky130_fd_sc_hd__dfxtp_1
XFILLER_23_634 VGND VGND VPWR VPWR sky130_fd_sc_hd__decap_4
XFILLER_243_1328 VGND VGND VPWR VPWR sky130_fd_sc_hd__fill_1
XFILLER_35_1009 VGND VGND VPWR VPWR sky130_ef_sc_hd__decap_12
X_22501_ _22464_/X _22499_/X _22500_/X _22469_/X VGND VGND VPWR VPWR _22501_/X sky130_fd_sc_hd__a22o_1
XFILLER_17_1410 VGND VGND VPWR VPWR sky130_fd_sc_hd__decap_8
X_23481_ input54/X VGND VGND VPWR VPWR _23481_/X sky130_fd_sc_hd__buf_4
XFILLER_50_453 VGND VGND VPWR VPWR sky130_fd_sc_hd__decap_6
X_35467_ _35723_/CLK _35467_/D VGND VGND VPWR VPWR _35467_/Q sky130_fd_sc_hd__dfxtp_1
X_20693_ _22366_/A VGND VGND VPWR VPWR _21477_/A sky130_fd_sc_hd__buf_8
X_32679_ _32871_/CLK _32679_/D VGND VGND VPWR VPWR _32679_/Q sky130_fd_sc_hd__dfxtp_1
XFILLER_11_818 VGND VGND VPWR VPWR sky130_ef_sc_hd__decap_12
XFILLER_10_306 VGND VGND VPWR VPWR sky130_fd_sc_hd__fill_2
XFILLER_50_475 VGND VGND VPWR VPWR sky130_fd_sc_hd__fill_1
XFILLER_195_447 VGND VGND VPWR VPWR sky130_fd_sc_hd__fill_1
XFILLER_143_1440 VGND VGND VPWR VPWR sky130_ef_sc_hd__decap_12
XFILLER_241_1041 VGND VGND VPWR VPWR sky130_fd_sc_hd__fill_1
X_22432_ _22152_/X _22430_/X _22431_/X _22157_/X VGND VGND VPWR VPWR _22432_/X sky130_fd_sc_hd__a22o_1
X_25220_ _33086_/Q _23420_/X _25238_/S VGND VGND VPWR VPWR _25221_/A sky130_fd_sc_hd__mux2_1
XFILLER_183_609 VGND VGND VPWR VPWR sky130_fd_sc_hd__decap_6
X_34418_ _34611_/CLK _34418_/D VGND VGND VPWR VPWR _34418_/Q sky130_fd_sc_hd__dfxtp_1
XFILLER_241_1063 VGND VGND VPWR VPWR sky130_fd_sc_hd__fill_1
XFILLER_149_864 VGND VGND VPWR VPWR sky130_fd_sc_hd__decap_4
XFILLER_210_278 VGND VGND VPWR VPWR sky130_fd_sc_hd__decap_6
XFILLER_202_1025 VGND VGND VPWR VPWR sky130_fd_sc_hd__decap_4
X_35398_ _35525_/CLK _35398_/D VGND VGND VPWR VPWR _35398_/Q sky130_fd_sc_hd__dfxtp_1
XFILLER_164_801 VGND VGND VPWR VPWR sky130_fd_sc_hd__decap_8
XFILLER_13_1318 VGND VGND VPWR VPWR sky130_ef_sc_hd__decap_12
X_22363_ _22159_/X _22361_/X _22362_/X _22162_/X VGND VGND VPWR VPWR _22363_/X sky130_fd_sc_hd__a22o_1
XFILLER_149_897 VGND VGND VPWR VPWR sky130_ef_sc_hd__decap_12
XFILLER_148_374 VGND VGND VPWR VPWR sky130_fd_sc_hd__decap_4
X_25151_ _25151_/A VGND VGND VPWR VPWR _33053_/D sky130_fd_sc_hd__clkbuf_1
XFILLER_136_525 VGND VGND VPWR VPWR sky130_fd_sc_hd__decap_6
X_34349_ _35630_/CLK _34349_/D VGND VGND VPWR VPWR _34349_/Q sky130_fd_sc_hd__dfxtp_1
X_24102_ _24102_/A VGND VGND VPWR VPWR _32591_/D sky130_fd_sc_hd__clkbuf_1
X_21314_ _22512_/A VGND VGND VPWR VPWR _21314_/X sky130_fd_sc_hd__clkbuf_4
X_25082_ _25130_/S VGND VGND VPWR VPWR _25101_/S sky130_fd_sc_hd__buf_6
XFILLER_108_249 VGND VGND VPWR VPWR sky130_fd_sc_hd__decap_3
X_22294_ _22290_/X _22293_/X _22085_/X VGND VGND VPWR VPWR _22324_/A sky130_fd_sc_hd__o21ba_1
XFILLER_124_709 VGND VGND VPWR VPWR sky130_fd_sc_hd__decap_8
XFILLER_190_141 VGND VGND VPWR VPWR sky130_ef_sc_hd__decap_12
XFILLER_105_901 VGND VGND VPWR VPWR sky130_fd_sc_hd__fill_1
X_28910_ _28910_/A VGND VGND VPWR VPWR _34767_/D sky130_fd_sc_hd__clkbuf_1
XFILLER_117_11 VGND VGND VPWR VPWR sky130_fd_sc_hd__decap_4
XFILLER_85_1121 VGND VGND VPWR VPWR sky130_fd_sc_hd__decap_3
X_24033_ _24033_/A VGND VGND VPWR VPWR _32558_/D sky130_fd_sc_hd__clkbuf_1
XFILLER_191_697 VGND VGND VPWR VPWR sky130_fd_sc_hd__fill_1
X_21245_ _22459_/A VGND VGND VPWR VPWR _21245_/X sky130_fd_sc_hd__clkbuf_4
X_36019_ _36019_/CLK _36019_/D VGND VGND VPWR VPWR _36019_/Q sky130_fd_sc_hd__dfxtp_1
X_29890_ _29890_/A VGND VGND VPWR VPWR _35201_/D sky130_fd_sc_hd__clkbuf_1
XFILLER_2_527 VGND VGND VPWR VPWR sky130_fd_sc_hd__fill_2
XFILLER_7_7 VGND VGND VPWR VPWR sky130_fd_sc_hd__decap_8
XFILLER_137_1233 VGND VGND VPWR VPWR sky130_fd_sc_hd__decap_8
XFILLER_117_55 VGND VGND VPWR VPWR sky130_fd_sc_hd__fill_1
XFILLER_2_549 VGND VGND VPWR VPWR sky130_fd_sc_hd__decap_8
X_28841_ _28841_/A VGND VGND VPWR VPWR _34734_/D sky130_fd_sc_hd__clkbuf_1
XFILLER_104_444 VGND VGND VPWR VPWR sky130_fd_sc_hd__decap_4
XFILLER_172_1135 VGND VGND VPWR VPWR sky130_fd_sc_hd__fill_1
X_21176_ _32868_/Q _32804_/Q _32740_/Q _32676_/Q _20887_/X _20888_/X VGND VGND VPWR
+ VPWR _21176_/X sky130_fd_sc_hd__mux4_1
XFILLER_89_144 VGND VGND VPWR VPWR sky130_ef_sc_hd__decap_12
XFILLER_104_477 VGND VGND VPWR VPWR sky130_fd_sc_hd__decap_6
X_20127_ _20123_/X _20126_/X _19818_/X VGND VGND VPWR VPWR _20128_/D sky130_fd_sc_hd__o21ba_1
X_28772_ _34703_/Q _27211_/X _28776_/S VGND VGND VPWR VPWR _28773_/A sky130_fd_sc_hd__mux2_1
X_25984_ _24852_/X _33447_/Q _25988_/S VGND VGND VPWR VPWR _25985_/A sky130_fd_sc_hd__mux2_1
XFILLER_246_610 VGND VGND VPWR VPWR sky130_fd_sc_hd__fill_2
X_27723_ input19/X VGND VGND VPWR VPWR _27723_/X sky130_fd_sc_hd__buf_2
XFILLER_86_851 VGND VGND VPWR VPWR sky130_fd_sc_hd__fill_1
X_20058_ _33670_/Q _33606_/Q _33542_/Q _33478_/Q _19853_/X _19854_/X VGND VGND VPWR
+ VPWR _20058_/X sky130_fd_sc_hd__mux4_1
X_24935_ _24935_/A VGND VGND VPWR VPWR _32961_/D sky130_fd_sc_hd__clkbuf_1
XFILLER_92_309 VGND VGND VPWR VPWR sky130_fd_sc_hd__decap_8
XTAP_3202 VGND VPWR sky130_fd_sc_hd__tapvpwrvgnd_1
XFILLER_150_1477 VGND VGND VPWR VPWR sky130_fd_sc_hd__decap_6
XFILLER_133_65 VGND VGND VPWR VPWR sky130_fd_sc_hd__decap_3
XTAP_3213 VGND VPWR sky130_fd_sc_hd__tapvpwrvgnd_1
XFILLER_150_1488 VGND VGND VPWR VPWR sky130_fd_sc_hd__decap_6
XFILLER_111_1439 VGND VGND VPWR VPWR sky130_fd_sc_hd__fill_2
XFILLER_73_512 VGND VGND VPWR VPWR sky130_fd_sc_hd__decap_8
XTAP_3224 VGND VPWR sky130_fd_sc_hd__tapvpwrvgnd_1
X_27654_ _27654_/A VGND VGND VPWR VPWR _34201_/D sky130_fd_sc_hd__clkbuf_1
XTAP_3235 VGND VPWR sky130_fd_sc_hd__tapvpwrvgnd_1
XTAP_2501 VGND VPWR sky130_fd_sc_hd__tapvpwrvgnd_1
X_24866_ _24865_/X _32939_/Q _24890_/S VGND VGND VPWR VPWR _24867_/A sky130_fd_sc_hd__mux2_1
XTAP_3246 VGND VPWR sky130_fd_sc_hd__tapvpwrvgnd_1
XFILLER_246_698 VGND VGND VPWR VPWR sky130_fd_sc_hd__fill_2
XTAP_2512 VGND VPWR sky130_fd_sc_hd__tapvpwrvgnd_1
XTAP_3257 VGND VPWR sky130_fd_sc_hd__tapvpwrvgnd_1
X_26605_ _26605_/A VGND VGND VPWR VPWR _33740_/D sky130_fd_sc_hd__clkbuf_1
XFILLER_27_951 VGND VGND VPWR VPWR sky130_fd_sc_hd__fill_1
XTAP_2523 VGND VPWR sky130_fd_sc_hd__tapvpwrvgnd_1
XTAP_3268 VGND VPWR sky130_fd_sc_hd__tapvpwrvgnd_1
XFILLER_233_337 VGND VGND VPWR VPWR sky130_fd_sc_hd__decap_4
X_23817_ _23817_/A VGND VGND VPWR VPWR _32393_/D sky130_fd_sc_hd__clkbuf_1
XFILLER_45_258 VGND VGND VPWR VPWR sky130_fd_sc_hd__fill_1
XTAP_2534 VGND VPWR sky130_fd_sc_hd__tapvpwrvgnd_1
XTAP_3279 VGND VPWR sky130_fd_sc_hd__tapvpwrvgnd_1
X_27585_ _34172_/Q _27152_/X _27587_/S VGND VGND VPWR VPWR _27586_/A sky130_fd_sc_hd__mux2_1
XTAP_1800 VGND VPWR sky130_fd_sc_hd__tapvpwrvgnd_1
XTAP_2545 VGND VPWR sky130_fd_sc_hd__tapvpwrvgnd_1
X_24797_ _27232_/B _25132_/A input83/X input89/X VGND VGND VPWR VPWR _24798_/A sky130_fd_sc_hd__and4b_1
XTAP_1811 VGND VPWR sky130_fd_sc_hd__tapvpwrvgnd_1
XTAP_2556 VGND VPWR sky130_fd_sc_hd__tapvpwrvgnd_1
XFILLER_183_1220 VGND VGND VPWR VPWR sky130_fd_sc_hd__decap_8
XTAP_1822 VGND VPWR sky130_fd_sc_hd__tapvpwrvgnd_1
X_29324_ _34964_/Q _27226_/X _29326_/S VGND VGND VPWR VPWR _29325_/A sky130_fd_sc_hd__mux2_1
XFILLER_148_1351 VGND VGND VPWR VPWR sky130_fd_sc_hd__fill_1
XFILLER_42_921 VGND VGND VPWR VPWR sky130_fd_sc_hd__decap_3
XTAP_2567 VGND VPWR sky130_fd_sc_hd__tapvpwrvgnd_1
XFILLER_26_483 VGND VGND VPWR VPWR sky130_fd_sc_hd__fill_1
X_26536_ _26536_/A VGND VGND VPWR VPWR _33707_/D sky130_fd_sc_hd__clkbuf_1
XTAP_1833 VGND VPWR sky130_fd_sc_hd__tapvpwrvgnd_1
XTAP_2578 VGND VPWR sky130_fd_sc_hd__tapvpwrvgnd_1
XFILLER_199_764 VGND VGND VPWR VPWR sky130_ef_sc_hd__decap_12
XTAP_1844 VGND VPWR sky130_fd_sc_hd__tapvpwrvgnd_1
XTAP_2589 VGND VPWR sky130_fd_sc_hd__tapvpwrvgnd_1
X_23748_ _22946_/X _32361_/Q _23748_/S VGND VGND VPWR VPWR _23749_/A sky130_fd_sc_hd__mux2_1
XFILLER_109_1313 VGND VGND VPWR VPWR sky130_fd_sc_hd__decap_3
XFILLER_14_645 VGND VGND VPWR VPWR sky130_fd_sc_hd__decap_3
XFILLER_13_111 VGND VGND VPWR VPWR sky130_fd_sc_hd__fill_1
XTAP_1855 VGND VPWR sky130_fd_sc_hd__tapvpwrvgnd_1
XFILLER_214_584 VGND VGND VPWR VPWR sky130_fd_sc_hd__decap_4
XFILLER_159_617 VGND VGND VPWR VPWR sky130_fd_sc_hd__decap_3
XTAP_1866 VGND VPWR sky130_fd_sc_hd__tapvpwrvgnd_1
X_29255_ _34931_/Q _27124_/X _29255_/S VGND VGND VPWR VPWR _29256_/A sky130_fd_sc_hd__mux2_1
XTAP_1877 VGND VPWR sky130_fd_sc_hd__tapvpwrvgnd_1
XFILLER_57_1289 VGND VGND VPWR VPWR sky130_ef_sc_hd__decap_12
X_26467_ _26467_/A VGND VGND VPWR VPWR _33675_/D sky130_fd_sc_hd__clkbuf_1
XTAP_1888 VGND VPWR sky130_fd_sc_hd__tapvpwrvgnd_1
XFILLER_202_757 VGND VGND VPWR VPWR sky130_fd_sc_hd__fill_1
X_23679_ _23679_/A VGND VGND VPWR VPWR _32329_/D sky130_fd_sc_hd__clkbuf_1
XFILLER_42_998 VGND VGND VPWR VPWR sky130_fd_sc_hd__fill_2
XTAP_1899 VGND VPWR sky130_fd_sc_hd__tapvpwrvgnd_1
X_28206_ _27782_/X _34435_/Q _28214_/S VGND VGND VPWR VPWR _28207_/A sky130_fd_sc_hd__mux2_1
X_16220_ _16018_/X _16218_/X _16219_/X _16027_/X VGND VGND VPWR VPWR _16220_/X sky130_fd_sc_hd__a22o_1
XFILLER_9_126 VGND VGND VPWR VPWR sky130_fd_sc_hd__decap_4
XFILLER_41_486 VGND VGND VPWR VPWR sky130_ef_sc_hd__decap_12
XFILLER_224_1261 VGND VGND VPWR VPWR sky130_fd_sc_hd__decap_4
X_25418_ _25418_/A VGND VGND VPWR VPWR _33178_/D sky130_fd_sc_hd__clkbuf_1
XFILLER_139_330 VGND VGND VPWR VPWR sky130_fd_sc_hd__decap_3
XFILLER_42_40 VGND VGND VPWR VPWR sky130_ef_sc_hd__decap_12
X_29186_ _29186_/A VGND VGND VPWR VPWR _34898_/D sky130_fd_sc_hd__clkbuf_1
XFILLER_186_469 VGND VGND VPWR VPWR sky130_fd_sc_hd__decap_6
XFILLER_70_1445 VGND VGND VPWR VPWR sky130_fd_sc_hd__decap_4
XFILLER_224_1283 VGND VGND VPWR VPWR sky130_fd_sc_hd__decap_8
X_26398_ _26398_/A VGND VGND VPWR VPWR _33642_/D sky130_fd_sc_hd__clkbuf_1
XFILLER_42_73 VGND VGND VPWR VPWR sky130_fd_sc_hd__decap_8
X_16151_ _16147_/X _16148_/X _16149_/X _16150_/X VGND VGND VPWR VPWR _16151_/X sky130_fd_sc_hd__a22o_1
XFILLER_154_300 VGND VGND VPWR VPWR sky130_fd_sc_hd__fill_2
X_28137_ _27680_/X _34402_/Q _28151_/S VGND VGND VPWR VPWR _28138_/A sky130_fd_sc_hd__mux2_1
XFILLER_167_694 VGND VGND VPWR VPWR sky130_fd_sc_hd__fill_2
XFILLER_155_834 VGND VGND VPWR VPWR sky130_fd_sc_hd__decap_6
X_25349_ _33147_/Q _23411_/X _25353_/S VGND VGND VPWR VPWR _25350_/A sky130_fd_sc_hd__mux2_1
XFILLER_182_653 VGND VGND VPWR VPWR sky130_fd_sc_hd__decap_4
X_28068_ _28068_/A VGND VGND VPWR VPWR _34369_/D sky130_fd_sc_hd__clkbuf_1
XFILLER_170_804 VGND VGND VPWR VPWR sky130_fd_sc_hd__fill_2
X_16082_ _17982_/A VGND VGND VPWR VPWR _17716_/A sky130_fd_sc_hd__buf_12
X_27019_ _33935_/Q _23478_/X _27023_/S VGND VGND VPWR VPWR _27020_/A sky130_fd_sc_hd__mux2_1
X_19910_ _33089_/Q _32065_/Q _35841_/Q _35777_/Q _19731_/X _19732_/X VGND VGND VPWR
+ VPWR _19910_/X sky130_fd_sc_hd__mux4_1
XFILLER_154_399 VGND VGND VPWR VPWR sky130_fd_sc_hd__decap_6
XFILLER_218_1021 VGND VGND VPWR VPWR sky130_fd_sc_hd__fill_2
XFILLER_218_1032 VGND VGND VPWR VPWR sky130_fd_sc_hd__decap_4
XFILLER_194_1371 VGND VGND VPWR VPWR sky130_fd_sc_hd__fill_1
X_30030_ _35268_/Q _29472_/X _30036_/S VGND VGND VPWR VPWR _30031_/A sky130_fd_sc_hd__mux2_1
X_19841_ _19656_/X _19839_/X _19840_/X _19659_/X VGND VGND VPWR VPWR _19841_/X sky130_fd_sc_hd__a22o_1
XFILLER_174_83 VGND VGND VPWR VPWR sky130_fd_sc_hd__fill_1
XFILLER_150_561 VGND VGND VPWR VPWR sky130_fd_sc_hd__fill_2
XFILLER_116_1317 VGND VGND VPWR VPWR sky130_ef_sc_hd__decap_12
XFILLER_29_1369 VGND VGND VPWR VPWR sky130_fd_sc_hd__decap_3
XFILLER_218_1087 VGND VGND VPWR VPWR sky130_fd_sc_hd__decap_4
XFILLER_155_1399 VGND VGND VPWR VPWR sky130_fd_sc_hd__fill_1
X_16984_ _16846_/X _16982_/X _16983_/X _16851_/X VGND VGND VPWR VPWR _16984_/X sky130_fd_sc_hd__a22o_1
XFILLER_7_1121 VGND VGND VPWR VPWR sky130_fd_sc_hd__decap_4
X_19772_ _34941_/Q _34877_/Q _34813_/Q _34749_/Q _19460_/X _19461_/X VGND VGND VPWR
+ VPWR _19772_/X sky130_fd_sc_hd__mux4_1
XFILLER_110_447 VGND VGND VPWR VPWR sky130_fd_sc_hd__fill_1
XFILLER_237_621 VGND VGND VPWR VPWR sky130_fd_sc_hd__fill_1
X_18723_ _33376_/Q _33312_/Q _33248_/Q _33184_/Q _18721_/X _18722_/X VGND VGND VPWR
+ VPWR _18723_/X sky130_fd_sc_hd__mux4_1
XTAP_5160 VGND VPWR sky130_fd_sc_hd__tapvpwrvgnd_1
X_31981_ _34790_/CLK _31981_/D VGND VGND VPWR VPWR _31981_/Q sky130_fd_sc_hd__dfxtp_1
XFILLER_95_169 VGND VGND VPWR VPWR sky130_ef_sc_hd__decap_12
XFILLER_231_1276 VGND VGND VPWR VPWR sky130_fd_sc_hd__decap_3
XFILLER_209_334 VGND VGND VPWR VPWR sky130_fd_sc_hd__fill_2
XTAP_5171 VGND VPWR sky130_fd_sc_hd__tapvpwrvgnd_1
XTAP_5182 VGND VPWR sky130_fd_sc_hd__tapvpwrvgnd_1
XFILLER_67_92 VGND VGND VPWR VPWR sky130_fd_sc_hd__decap_4
XFILLER_92_810 VGND VGND VPWR VPWR sky130_fd_sc_hd__fill_2
XFILLER_97_1003 VGND VGND VPWR VPWR sky130_fd_sc_hd__decap_4
XTAP_5193 VGND VPWR sky130_fd_sc_hd__tapvpwrvgnd_1
XFILLER_7_1198 VGND VGND VPWR VPWR sky130_fd_sc_hd__decap_8
XFILLER_36_203 VGND VGND VPWR VPWR sky130_fd_sc_hd__fill_1
XFILLER_77_895 VGND VGND VPWR VPWR sky130_fd_sc_hd__fill_1
XFILLER_92_821 VGND VGND VPWR VPWR sky130_fd_sc_hd__decap_8
X_30932_ _30932_/A VGND VGND VPWR VPWR _35695_/D sky130_fd_sc_hd__clkbuf_1
X_33720_ _35704_/CLK _33720_/D VGND VGND VPWR VPWR _33720_/Q sky130_fd_sc_hd__dfxtp_1
X_18654_ _20066_/A VGND VGND VPWR VPWR _18654_/X sky130_fd_sc_hd__clkbuf_4
XFILLER_236_153 VGND VGND VPWR VPWR sky130_fd_sc_hd__fill_1
XTAP_4470 VGND VPWR sky130_fd_sc_hd__tapvpwrvgnd_1
Xclkbuf_leaf_6_CLK clkbuf_leaf_9_CLK/A VGND VGND VPWR VPWR _34914_/CLK sky130_fd_sc_hd__clkbuf_16
XFILLER_91_320 VGND VGND VPWR VPWR sky130_fd_sc_hd__fill_1
XFILLER_236_175 VGND VGND VPWR VPWR sky130_fd_sc_hd__decap_8
XFILLER_149_1115 VGND VGND VPWR VPWR sky130_fd_sc_hd__decap_4
XTAP_4481 VGND VPWR sky130_fd_sc_hd__tapvpwrvgnd_1
XTAP_4492 VGND VPWR sky130_fd_sc_hd__tapvpwrvgnd_1
X_17605_ _35649_/Q _35009_/Q _34369_/Q _33729_/Q _17497_/X _17498_/X VGND VGND VPWR
+ VPWR _17605_/X sky130_fd_sc_hd__mux4_1
XFILLER_236_197 VGND VGND VPWR VPWR sky130_ef_sc_hd__decap_12
X_30863_ _35663_/Q input53/X _30867_/S VGND VGND VPWR VPWR _30864_/A sky130_fd_sc_hd__mux2_1
X_18585_ _18318_/X _18583_/X _18584_/X _18327_/X VGND VGND VPWR VPWR _18585_/X sky130_fd_sc_hd__a22o_1
X_33651_ _36082_/CLK _33651_/D VGND VGND VPWR VPWR _33651_/Q sky130_fd_sc_hd__dfxtp_1
XTAP_3780 VGND VPWR sky130_fd_sc_hd__tapvpwrvgnd_1
XFILLER_64_589 VGND VGND VPWR VPWR sky130_ef_sc_hd__decap_12
XFILLER_91_375 VGND VGND VPWR VPWR sky130_fd_sc_hd__decap_6
XTAP_3791 VGND VPWR sky130_fd_sc_hd__tapvpwrvgnd_1
X_32602_ _36055_/CLK _32602_/D VGND VGND VPWR VPWR _32602_/Q sky130_fd_sc_hd__dfxtp_1
X_17536_ _35711_/Q _32221_/Q _35583_/Q _35519_/Q _17317_/X _17318_/X VGND VGND VPWR
+ VPWR _17536_/X sky130_fd_sc_hd__mux4_1
X_33582_ _33902_/CLK _33582_/D VGND VGND VPWR VPWR _33582_/Q sky130_fd_sc_hd__dfxtp_1
XFILLER_205_573 VGND VGND VPWR VPWR sky130_fd_sc_hd__decap_8
XFILLER_178_915 VGND VGND VPWR VPWR sky130_fd_sc_hd__fill_2
XFILLER_162_1304 VGND VGND VPWR VPWR sky130_ef_sc_hd__decap_12
X_30794_ _35630_/Q input17/X _30804_/S VGND VGND VPWR VPWR _30795_/A sky130_fd_sc_hd__mux2_1
XFILLER_33_965 VGND VGND VPWR VPWR sky130_fd_sc_hd__decap_3
XFILLER_225_1036 VGND VGND VPWR VPWR sky130_fd_sc_hd__fill_2
XFILLER_220_521 VGND VGND VPWR VPWR sky130_fd_sc_hd__decap_8
XFILLER_189_274 VGND VGND VPWR VPWR sky130_fd_sc_hd__decap_6
X_32533_ _36053_/CLK _32533_/D VGND VGND VPWR VPWR _32533_/Q sky130_fd_sc_hd__dfxtp_1
X_35321_ _35448_/CLK _35321_/D VGND VGND VPWR VPWR _35321_/Q sky130_fd_sc_hd__dfxtp_1
XFILLER_75_1378 VGND VGND VPWR VPWR sky130_fd_sc_hd__fill_2
XFILLER_177_425 VGND VGND VPWR VPWR sky130_fd_sc_hd__fill_1
XFILLER_127_1457 VGND VGND VPWR VPWR sky130_ef_sc_hd__decap_12
X_17467_ _17463_/X _17466_/X _17151_/X VGND VGND VPWR VPWR _17475_/C sky130_fd_sc_hd__o21ba_1
XFILLER_177_447 VGND VGND VPWR VPWR sky130_fd_sc_hd__fill_1
XFILLER_32_486 VGND VGND VPWR VPWR sky130_fd_sc_hd__decap_4
XFILLER_203_1312 VGND VGND VPWR VPWR sky130_ef_sc_hd__decap_12
X_16418_ _33632_/Q _33568_/Q _33504_/Q _33440_/Q _16141_/X _16142_/X VGND VGND VPWR
+ VPWR _16418_/X sky130_fd_sc_hd__mux4_1
X_19206_ _19200_/X _19205_/X _19098_/X VGND VGND VPWR VPWR _19214_/C sky130_fd_sc_hd__o21ba_1
X_32464_ _36079_/CLK _32464_/D VGND VGND VPWR VPWR _32464_/Q sky130_fd_sc_hd__dfxtp_1
X_35252_ _35698_/CLK _35252_/D VGND VGND VPWR VPWR _35252_/Q sky130_fd_sc_hd__dfxtp_1
X_17398_ _17153_/X _17396_/X _17397_/X _17156_/X VGND VGND VPWR VPWR _17398_/X sky130_fd_sc_hd__a22o_1
XFILLER_192_406 VGND VGND VPWR VPWR sky130_fd_sc_hd__fill_1
XFILLER_34_1064 VGND VGND VPWR VPWR sky130_fd_sc_hd__decap_3
X_34203_ _36121_/CLK _34203_/D VGND VGND VPWR VPWR _34203_/Q sky130_fd_sc_hd__dfxtp_1
X_31415_ _31415_/A VGND VGND VPWR VPWR _35924_/D sky130_fd_sc_hd__clkbuf_1
X_19137_ _34667_/Q _34603_/Q _34539_/Q _34475_/Q _18886_/X _18887_/X VGND VGND VPWR
+ VPWR _19137_/X sky130_fd_sc_hd__mux4_1
XFILLER_158_683 VGND VGND VPWR VPWR sky130_fd_sc_hd__fill_1
X_16349_ _33374_/Q _33310_/Q _33246_/Q _33182_/Q _16002_/X _16003_/X VGND VGND VPWR
+ VPWR _16349_/X sky130_fd_sc_hd__mux4_1
XFILLER_9_671 VGND VGND VPWR VPWR sky130_fd_sc_hd__fill_1
X_35183_ _35183_/CLK _35183_/D VGND VGND VPWR VPWR _35183_/Q sky130_fd_sc_hd__dfxtp_1
X_32395_ _32907_/CLK _32395_/D VGND VGND VPWR VPWR _32395_/Q sky130_fd_sc_hd__dfxtp_1
X_34134_ _35994_/CLK _34134_/D VGND VGND VPWR VPWR _34134_/Q sky130_fd_sc_hd__dfxtp_1
XFILLER_8_192 VGND VGND VPWR VPWR sky130_fd_sc_hd__decap_4
X_19068_ _19064_/X _19067_/X _18759_/X VGND VGND VPWR VPWR _19069_/D sky130_fd_sc_hd__o21ba_1
X_31346_ _31346_/A VGND VGND VPWR VPWR _35891_/D sky130_fd_sc_hd__clkbuf_1
XFILLER_173_664 VGND VGND VPWR VPWR sky130_fd_sc_hd__fill_2
XFILLER_172_141 VGND VGND VPWR VPWR sky130_fd_sc_hd__decap_6
XFILLER_12_1362 VGND VGND VPWR VPWR sky130_fd_sc_hd__fill_2
X_18019_ _32141_/Q _32333_/Q _32397_/Q _35917_/Q _17986_/X _17774_/X VGND VGND VPWR
+ VPWR _18019_/X sky130_fd_sc_hd__mux4_1
XFILLER_86_1441 VGND VGND VPWR VPWR sky130_ef_sc_hd__decap_12
X_34065_ _34193_/CLK _34065_/D VGND VGND VPWR VPWR _34065_/Q sky130_fd_sc_hd__dfxtp_1
X_31277_ _27831_/X _35859_/Q _31281_/S VGND VGND VPWR VPWR _31278_/A sky130_fd_sc_hd__mux2_1
XFILLER_145_399 VGND VGND VPWR VPWR sky130_fd_sc_hd__decap_4
X_21030_ _20953_/X _21028_/X _21029_/X _20959_/X VGND VGND VPWR VPWR _21030_/X sky130_fd_sc_hd__a22o_1
X_33016_ _36024_/CLK _33016_/D VGND VGND VPWR VPWR _33016_/Q sky130_fd_sc_hd__dfxtp_1
XFILLER_86_1485 VGND VGND VPWR VPWR sky130_fd_sc_hd__decap_8
X_30228_ _30228_/A VGND VGND VPWR VPWR _35361_/D sky130_fd_sc_hd__clkbuf_1
XFILLER_99_453 VGND VGND VPWR VPWR sky130_fd_sc_hd__fill_1
XFILLER_173_1444 VGND VGND VPWR VPWR sky130_fd_sc_hd__decap_4
XFILLER_114_775 VGND VGND VPWR VPWR sky130_fd_sc_hd__decap_3
XFILLER_141_561 VGND VGND VPWR VPWR sky130_ef_sc_hd__decap_12
XFILLER_59_306 VGND VGND VPWR VPWR sky130_fd_sc_hd__decap_4
XFILLER_99_475 VGND VGND VPWR VPWR sky130_ef_sc_hd__decap_12
XFILLER_114_797 VGND VGND VPWR VPWR sky130_fd_sc_hd__fill_2
X_30159_ _35329_/Q _29463_/X _30171_/S VGND VGND VPWR VPWR _30160_/A sky130_fd_sc_hd__mux2_1
XFILLER_113_285 VGND VGND VPWR VPWR sky130_fd_sc_hd__fill_1