* NGSPICE file created from Microwatt_FP_DFFRFile.ext - technology: sky130B

* Black-box entry subcircuit for sky130_fd_sc_hd__fill_2 abstract view
.subckt sky130_fd_sc_hd__fill_2 VGND VNB VPB VPWR
.ends

* Black-box entry subcircuit for sky130_fd_sc_hd__dfxtp_1 abstract view
.subckt sky130_fd_sc_hd__dfxtp_1 CLK D VGND VNB VPB VPWR Q
.ends

* Black-box entry subcircuit for sky130_fd_sc_hd__diode_2 abstract view
.subckt sky130_fd_sc_hd__diode_2 DIODE VGND VNB VPB VPWR
.ends

* Black-box entry subcircuit for sky130_fd_sc_hd__decap_3 abstract view
.subckt sky130_fd_sc_hd__decap_3 VGND VNB VPB VPWR
.ends

* Black-box entry subcircuit for sky130_fd_sc_hd__decap_6 abstract view
.subckt sky130_fd_sc_hd__decap_6 VGND VNB VPB VPWR
.ends

* Black-box entry subcircuit for sky130_ef_sc_hd__decap_12 abstract view
.subckt sky130_ef_sc_hd__decap_12 VGND VNB VPB VPWR
.ends

* Black-box entry subcircuit for sky130_fd_sc_hd__fill_1 abstract view
.subckt sky130_fd_sc_hd__fill_1 VGND VNB VPB VPWR
.ends

* Black-box entry subcircuit for sky130_fd_sc_hd__a22o_1 abstract view
.subckt sky130_fd_sc_hd__a22o_1 A1 A2 B1 B2 VGND VNB VPB VPWR X
.ends

* Black-box entry subcircuit for sky130_fd_sc_hd__buf_6 abstract view
.subckt sky130_fd_sc_hd__buf_6 A VGND VNB VPB VPWR X
.ends

* Black-box entry subcircuit for sky130_fd_sc_hd__o211a_1 abstract view
.subckt sky130_fd_sc_hd__o211a_1 A1 A2 B1 C1 VGND VNB VPB VPWR X
.ends

* Black-box entry subcircuit for sky130_fd_sc_hd__decap_4 abstract view
.subckt sky130_fd_sc_hd__decap_4 VGND VNB VPB VPWR
.ends

* Black-box entry subcircuit for sky130_fd_sc_hd__mux4_1 abstract view
.subckt sky130_fd_sc_hd__mux4_1 A0 A1 A2 A3 S0 S1 VGND VNB VPB VPWR X
.ends

* Black-box entry subcircuit for sky130_fd_sc_hd__clkbuf_1 abstract view
.subckt sky130_fd_sc_hd__clkbuf_1 A VGND VNB VPB VPWR X
.ends

* Black-box entry subcircuit for sky130_fd_sc_hd__o21ba_1 abstract view
.subckt sky130_fd_sc_hd__o21ba_1 A1 A2 B1_N VGND VNB VPB VPWR X
.ends

* Black-box entry subcircuit for sky130_fd_sc_hd__buf_4 abstract view
.subckt sky130_fd_sc_hd__buf_4 A VGND VNB VPB VPWR X
.ends

* Black-box entry subcircuit for sky130_fd_sc_hd__buf_12 abstract view
.subckt sky130_fd_sc_hd__buf_12 A VGND VNB VPB VPWR X
.ends

* Black-box entry subcircuit for sky130_fd_sc_hd__mux2_1 abstract view
.subckt sky130_fd_sc_hd__mux2_1 A0 A1 S VGND VNB VPB VPWR X
.ends

* Black-box entry subcircuit for sky130_fd_sc_hd__clkbuf_4 abstract view
.subckt sky130_fd_sc_hd__clkbuf_4 A VGND VNB VPB VPWR X
.ends

* Black-box entry subcircuit for sky130_fd_sc_hd__decap_8 abstract view
.subckt sky130_fd_sc_hd__decap_8 VGND VNB VPB VPWR
.ends

* Black-box entry subcircuit for sky130_fd_sc_hd__tapvpwrvgnd_1 abstract view
.subckt sky130_fd_sc_hd__tapvpwrvgnd_1 VGND VPWR
.ends

* Black-box entry subcircuit for sky130_fd_sc_hd__clkbuf_8 abstract view
.subckt sky130_fd_sc_hd__clkbuf_8 A VGND VNB VPB VPWR X
.ends

* Black-box entry subcircuit for sky130_fd_sc_hd__buf_2 abstract view
.subckt sky130_fd_sc_hd__buf_2 A VGND VNB VPB VPWR X
.ends

* Black-box entry subcircuit for sky130_fd_sc_hd__clkbuf_16 abstract view
.subckt sky130_fd_sc_hd__clkbuf_16 A VGND VNB VPB VPWR X
.ends

* Black-box entry subcircuit for sky130_fd_sc_hd__mux4_2 abstract view
.subckt sky130_fd_sc_hd__mux4_2 A0 A1 A2 A3 S0 S1 VGND VNB VPB VPWR X
.ends

* Black-box entry subcircuit for sky130_fd_sc_hd__or4_1 abstract view
.subckt sky130_fd_sc_hd__or4_1 A B C D VGND VNB VPB VPWR X
.ends

* Black-box entry subcircuit for sky130_fd_sc_hd__nand2_8 abstract view
.subckt sky130_fd_sc_hd__nand2_8 A B VGND VNB VPB VPWR Y
.ends

* Black-box entry subcircuit for sky130_fd_sc_hd__or2_4 abstract view
.subckt sky130_fd_sc_hd__or2_4 A B VGND VNB VPB VPWR X
.ends

* Black-box entry subcircuit for sky130_fd_sc_hd__or4_4 abstract view
.subckt sky130_fd_sc_hd__or4_4 A B C D VGND VNB VPB VPWR X
.ends

* Black-box entry subcircuit for sky130_fd_sc_hd__clkbuf_2 abstract view
.subckt sky130_fd_sc_hd__clkbuf_2 A VGND VNB VPB VPWR X
.ends

* Black-box entry subcircuit for sky130_fd_sc_hd__nor2_8 abstract view
.subckt sky130_fd_sc_hd__nor2_8 A B VGND VNB VPB VPWR Y
.ends

* Black-box entry subcircuit for sky130_fd_sc_hd__dfxtp_2 abstract view
.subckt sky130_fd_sc_hd__dfxtp_2 CLK D VGND VNB VPB VPWR Q
.ends

* Black-box entry subcircuit for sky130_fd_sc_hd__or3b_1 abstract view
.subckt sky130_fd_sc_hd__or3b_1 A B C_N VGND VNB VPB VPWR X
.ends

* Black-box entry subcircuit for sky130_fd_sc_hd__or4_2 abstract view
.subckt sky130_fd_sc_hd__or4_2 A B C D VGND VNB VPB VPWR X
.ends

* Black-box entry subcircuit for sky130_fd_sc_hd__o21ba_2 abstract view
.subckt sky130_fd_sc_hd__o21ba_2 A1 A2 B1_N VGND VNB VPB VPWR X
.ends

* Black-box entry subcircuit for sky130_fd_sc_hd__buf_8 abstract view
.subckt sky130_fd_sc_hd__buf_8 A VGND VNB VPB VPWR X
.ends

* Black-box entry subcircuit for sky130_fd_sc_hd__and4_2 abstract view
.subckt sky130_fd_sc_hd__and4_2 A B C D VGND VNB VPB VPWR X
.ends

* Black-box entry subcircuit for sky130_fd_sc_hd__and3b_1 abstract view
.subckt sky130_fd_sc_hd__and3b_1 A_N B C VGND VNB VPB VPWR X
.ends

* Black-box entry subcircuit for sky130_fd_sc_hd__o211a_2 abstract view
.subckt sky130_fd_sc_hd__o211a_2 A1 A2 B1 C1 VGND VNB VPB VPWR X
.ends

* Black-box entry subcircuit for sky130_fd_sc_hd__nor3_4 abstract view
.subckt sky130_fd_sc_hd__nor3_4 A B C VGND VNB VPB VPWR Y
.ends

* Black-box entry subcircuit for sky130_fd_sc_hd__nor2_4 abstract view
.subckt sky130_fd_sc_hd__nor2_4 A B VGND VNB VPB VPWR Y
.ends

* Black-box entry subcircuit for sky130_fd_sc_hd__nand2b_4 abstract view
.subckt sky130_fd_sc_hd__nand2b_4 A_N B VGND VNB VPB VPWR Y
.ends

* Black-box entry subcircuit for sky130_fd_sc_hd__or2_1 abstract view
.subckt sky130_fd_sc_hd__or2_1 A B VGND VNB VPB VPWR X
.ends

* Black-box entry subcircuit for sky130_fd_sc_hd__nor3b_4 abstract view
.subckt sky130_fd_sc_hd__nor3b_4 A B C_N VGND VNB VPB VPWR Y
.ends

* Black-box entry subcircuit for sky130_fd_sc_hd__or2b_4 abstract view
.subckt sky130_fd_sc_hd__or2b_4 A B_N VGND VNB VPB VPWR X
.ends

* Black-box entry subcircuit for sky130_fd_sc_hd__nor2b_4 abstract view
.subckt sky130_fd_sc_hd__nor2b_4 A B_N VGND VNB VPB VPWR Y
.ends

* Black-box entry subcircuit for sky130_fd_sc_hd__or3_1 abstract view
.subckt sky130_fd_sc_hd__or3_1 A B C VGND VNB VPB VPWR X
.ends

* Black-box entry subcircuit for sky130_fd_sc_hd__and2_1 abstract view
.subckt sky130_fd_sc_hd__and2_1 A B VGND VNB VPB VPWR X
.ends

* Black-box entry subcircuit for sky130_fd_sc_hd__dlymetal6s2s_1 abstract view
.subckt sky130_fd_sc_hd__dlymetal6s2s_1 A VGND VNB VPB VPWR X
.ends

* Black-box entry subcircuit for sky130_fd_sc_hd__and2b_1 abstract view
.subckt sky130_fd_sc_hd__and2b_1 A_N B VGND VNB VPB VPWR X
.ends

* Black-box entry subcircuit for sky130_fd_sc_hd__or4b_1 abstract view
.subckt sky130_fd_sc_hd__or4b_1 A B C D_N VGND VNB VPB VPWR X
.ends

* Black-box entry subcircuit for sky130_fd_sc_hd__nand2_2 abstract view
.subckt sky130_fd_sc_hd__nand2_2 A B VGND VNB VPB VPWR Y
.ends

* Black-box entry subcircuit for sky130_fd_sc_hd__inv_2 abstract view
.subckt sky130_fd_sc_hd__inv_2 A VGND VNB VPB VPWR Y
.ends

.subckt Microwatt_FP_DFFRFile CLK D1[0] D1[10] D1[11] D1[12] D1[13] D1[14] D1[15]
+ D1[16] D1[17] D1[18] D1[19] D1[1] D1[20] D1[21] D1[22] D1[23] D1[24] D1[25] D1[26]
+ D1[27] D1[28] D1[29] D1[2] D1[30] D1[31] D1[32] D1[33] D1[34] D1[35] D1[36] D1[37]
+ D1[38] D1[39] D1[3] D1[40] D1[41] D1[42] D1[43] D1[44] D1[45] D1[46] D1[47] D1[48]
+ D1[49] D1[4] D1[50] D1[51] D1[52] D1[53] D1[54] D1[55] D1[56] D1[57] D1[58] D1[59]
+ D1[5] D1[60] D1[61] D1[62] D1[63] D1[6] D1[7] D1[8] D1[9] D2[0] D2[10] D2[11] D2[12]
+ D2[13] D2[14] D2[15] D2[16] D2[17] D2[18] D2[19] D2[1] D2[20] D2[21] D2[22] D2[23]
+ D2[24] D2[25] D2[26] D2[27] D2[28] D2[29] D2[2] D2[30] D2[31] D2[32] D2[33] D2[34]
+ D2[35] D2[36] D2[37] D2[38] D2[39] D2[3] D2[40] D2[41] D2[42] D2[43] D2[44] D2[45]
+ D2[46] D2[47] D2[48] D2[49] D2[4] D2[50] D2[51] D2[52] D2[53] D2[54] D2[55] D2[56]
+ D2[57] D2[58] D2[59] D2[5] D2[60] D2[61] D2[62] D2[63] D2[6] D2[7] D2[8] D2[9] D3[0]
+ D3[10] D3[11] D3[12] D3[13] D3[14] D3[15] D3[16] D3[17] D3[18] D3[19] D3[1] D3[20]
+ D3[21] D3[22] D3[23] D3[24] D3[25] D3[26] D3[27] D3[28] D3[29] D3[2] D3[30] D3[31]
+ D3[32] D3[33] D3[34] D3[35] D3[36] D3[37] D3[38] D3[39] D3[3] D3[40] D3[41] D3[42]
+ D3[43] D3[44] D3[45] D3[46] D3[47] D3[48] D3[49] D3[4] D3[50] D3[51] D3[52] D3[53]
+ D3[54] D3[55] D3[56] D3[57] D3[58] D3[59] D3[5] D3[60] D3[61] D3[62] D3[63] D3[6]
+ D3[7] D3[8] D3[9] DW[0] DW[10] DW[11] DW[12] DW[13] DW[14] DW[15] DW[16] DW[17]
+ DW[18] DW[19] DW[1] DW[20] DW[21] DW[22] DW[23] DW[24] DW[25] DW[26] DW[27] DW[28]
+ DW[29] DW[2] DW[30] DW[31] DW[32] DW[33] DW[34] DW[35] DW[36] DW[37] DW[38] DW[39]
+ DW[3] DW[40] DW[41] DW[42] DW[43] DW[44] DW[45] DW[46] DW[47] DW[48] DW[49] DW[4]
+ DW[50] DW[51] DW[52] DW[53] DW[54] DW[55] DW[56] DW[57] DW[58] DW[59] DW[5] DW[60]
+ DW[61] DW[62] DW[63] DW[6] DW[7] DW[8] DW[9] R1[0] R1[1] R1[2] R1[3] R1[4] R1[5]
+ R2[0] R2[1] R2[2] R2[3] R2[4] R2[5] R3[0] R3[1] R3[2] R3[3] R3[4] R3[5] RW[0] RW[1]
+ RW[2] RW[3] RW[4] RW[5] VGND VPWR WE
XFILLER_228_813 VGND VGND VPWR VPWR sky130_fd_sc_hd__fill_2
X_34984_ _34987_/CLK _34984_/D VGND VGND VPWR VPWR _34984_/Q sky130_fd_sc_hd__dfxtp_1
XANTENNA_1360 _23105_/X VGND VGND VPWR VPWR sky130_fd_sc_hd__diode_2
XANTENNA_1371 _24407_/X VGND VGND VPWR VPWR sky130_fd_sc_hd__diode_2
XFILLER_39_233 VGND VGND VPWR VPWR sky130_fd_sc_hd__decap_3
XANTENNA_1382 _28776_/S VGND VGND VPWR VPWR sky130_fd_sc_hd__diode_2
XFILLER_67_553 VGND VGND VPWR VPWR sky130_fd_sc_hd__decap_6
X_33935_ _34262_/CLK _33935_/D VGND VGND VPWR VPWR _33935_/Q sky130_fd_sc_hd__dfxtp_1
XANTENNA_1393 _16623_/B VGND VGND VPWR VPWR sky130_fd_sc_hd__diode_2
XFILLER_132_1366 VGND VGND VPWR VPWR sky130_fd_sc_hd__decap_6
XFILLER_41_1249 VGND VGND VPWR VPWR sky130_ef_sc_hd__decap_12
XFILLER_80_1298 VGND VGND VPWR VPWR sky130_fd_sc_hd__fill_1
X_18869_ _18649_/X _18867_/X _18868_/X _18655_/X VGND VGND VPWR VPWR _18869_/X sky130_fd_sc_hd__a22o_1
XFILLER_39_266 VGND VGND VPWR VPWR sky130_fd_sc_hd__decap_3
X_20900_ _22312_/A VGND VGND VPWR VPWR _20900_/X sky130_fd_sc_hd__buf_6
X_21880_ _21875_/X _21879_/X _21736_/X _21737_/X VGND VGND VPWR VPWR _21897_/B sky130_fd_sc_hd__o211a_1
X_33866_ _35852_/CLK _33866_/D VGND VGND VPWR VPWR _33866_/Q sky130_fd_sc_hd__dfxtp_1
XFILLER_54_225 VGND VGND VPWR VPWR sky130_fd_sc_hd__decap_4
XFILLER_243_838 VGND VGND VPWR VPWR sky130_fd_sc_hd__fill_2
XFILLER_243_849 VGND VGND VPWR VPWR sky130_fd_sc_hd__fill_2
XFILLER_199_219 VGND VGND VPWR VPWR sky130_fd_sc_hd__decap_4
X_20831_ _34770_/Q _34706_/Q _34642_/Q _34578_/Q _20829_/X _20830_/X VGND VGND VPWR
+ VPWR _20831_/X sky130_fd_sc_hd__mux4_1
X_35605_ _35669_/CLK _35605_/D VGND VGND VPWR VPWR _35605_/Q sky130_fd_sc_hd__dfxtp_1
X_32817_ _33009_/CLK _32817_/D VGND VGND VPWR VPWR _32817_/Q sky130_fd_sc_hd__dfxtp_1
X_33797_ _34309_/CLK _33797_/D VGND VGND VPWR VPWR _33797_/Q sky130_fd_sc_hd__dfxtp_1
XFILLER_82_589 VGND VGND VPWR VPWR sky130_fd_sc_hd__fill_2
X_23550_ _23550_/A VGND VGND VPWR VPWR _32328_/D sky130_fd_sc_hd__clkbuf_1
X_20762_ _20758_/X _20761_/X _20671_/X VGND VGND VPWR VPWR _20772_/C sky130_fd_sc_hd__o21ba_1
X_35536_ _35793_/CLK _35536_/D VGND VGND VPWR VPWR _35536_/Q sky130_fd_sc_hd__dfxtp_1
XFILLER_22_100 VGND VGND VPWR VPWR sky130_fd_sc_hd__decap_6
X_32748_ _36076_/CLK _32748_/D VGND VGND VPWR VPWR _32748_/Q sky130_fd_sc_hd__dfxtp_1
XFILLER_161_1006 VGND VGND VPWR VPWR sky130_fd_sc_hd__fill_2
XFILLER_51_965 VGND VGND VPWR VPWR sky130_fd_sc_hd__fill_1
X_22501_ _22501_/A VGND VGND VPWR VPWR _22501_/X sky130_fd_sc_hd__buf_4
XFILLER_168_639 VGND VGND VPWR VPWR sky130_fd_sc_hd__decap_4
X_23481_ _23481_/A VGND VGND VPWR VPWR _32295_/D sky130_fd_sc_hd__clkbuf_1
X_35467_ _35978_/CLK _35467_/D VGND VGND VPWR VPWR _35467_/Q sky130_fd_sc_hd__dfxtp_1
X_32679_ _33255_/CLK _32679_/D VGND VGND VPWR VPWR _32679_/Q sky130_fd_sc_hd__dfxtp_1
X_20693_ _22370_/A VGND VGND VPWR VPWR _21757_/A sky130_fd_sc_hd__buf_12
X_22432_ _34048_/Q _33984_/Q _33920_/Q _32256_/Q _22326_/X _22327_/X VGND VGND VPWR
+ VPWR _22432_/X sky130_fd_sc_hd__mux4_1
X_25220_ _25035_/X _33052_/Q _25230_/S VGND VGND VPWR VPWR _25221_/A sky130_fd_sc_hd__mux2_1
XFILLER_17_1465 VGND VGND VPWR VPWR sky130_fd_sc_hd__fill_2
X_34418_ _34866_/CLK _34418_/D VGND VGND VPWR VPWR _34418_/Q sky130_fd_sc_hd__dfxtp_1
XFILLER_148_341 VGND VGND VPWR VPWR sky130_fd_sc_hd__decap_3
XFILLER_13_1307 VGND VGND VPWR VPWR sky130_fd_sc_hd__fill_2
XFILLER_210_278 VGND VGND VPWR VPWR sky130_fd_sc_hd__decap_6
X_35398_ _35975_/CLK _35398_/D VGND VGND VPWR VPWR _35398_/Q sky130_fd_sc_hd__dfxtp_1
XFILLER_149_875 VGND VGND VPWR VPWR sky130_fd_sc_hd__decap_3
XFILLER_176_661 VGND VGND VPWR VPWR sky130_ef_sc_hd__decap_12
X_25151_ _25150_/X _33025_/Q _25175_/S VGND VGND VPWR VPWR _25152_/A sky130_fd_sc_hd__mux2_1
X_22363_ _32766_/Q _32702_/Q _32638_/Q _36094_/Q _22225_/X _22362_/X VGND VGND VPWR
+ VPWR _22363_/X sky130_fd_sc_hd__mux4_1
XFILLER_149_897 VGND VGND VPWR VPWR sky130_ef_sc_hd__decap_12
XFILLER_136_525 VGND VGND VPWR VPWR sky130_fd_sc_hd__fill_1
X_34349_ _35307_/CLK _34349_/D VGND VGND VPWR VPWR _34349_/Q sky130_fd_sc_hd__dfxtp_1
XFILLER_175_182 VGND VGND VPWR VPWR sky130_fd_sc_hd__fill_1
X_24102_ _23068_/X _32587_/Q _24106_/S VGND VGND VPWR VPWR _24103_/A sky130_fd_sc_hd__mux2_1
X_21314_ _22511_/A VGND VGND VPWR VPWR _21314_/X sky130_fd_sc_hd__clkbuf_4
X_25082_ _25081_/X _33003_/Q _25082_/S VGND VGND VPWR VPWR _25083_/A sky130_fd_sc_hd__mux2_1
X_22294_ _32508_/Q _32380_/Q _32060_/Q _36028_/Q _22229_/X _22017_/X VGND VGND VPWR
+ VPWR _22294_/X sky130_fd_sc_hd__mux4_1
XFILLER_102_1170 VGND VGND VPWR VPWR sky130_fd_sc_hd__decap_4
X_28910_ _28910_/A VGND VGND VPWR VPWR _34764_/D sky130_fd_sc_hd__clkbuf_1
XFILLER_117_11 VGND VGND VPWR VPWR sky130_fd_sc_hd__fill_1
X_24033_ _22966_/X _32554_/Q _24035_/S VGND VGND VPWR VPWR _24034_/A sky130_fd_sc_hd__mux2_1
XFILLER_85_1121 VGND VGND VPWR VPWR sky130_ef_sc_hd__decap_12
X_21245_ _21241_/X _21242_/X _21243_/X _21244_/X VGND VGND VPWR VPWR _21245_/X sky130_fd_sc_hd__a22o_1
X_36019_ _36019_/CLK _36019_/D VGND VGND VPWR VPWR _36019_/Q sky130_fd_sc_hd__dfxtp_1
X_29890_ _29890_/A VGND VGND VPWR VPWR _35197_/D sky130_fd_sc_hd__clkbuf_1
XFILLER_172_1102 VGND VGND VPWR VPWR sky130_fd_sc_hd__decap_8
XFILLER_215_1408 VGND VGND VPWR VPWR sky130_fd_sc_hd__decap_8
XFILLER_176_1282 VGND VGND VPWR VPWR sky130_ef_sc_hd__decap_12
XFILLER_104_433 VGND VGND VPWR VPWR sky130_fd_sc_hd__decap_8
X_28841_ _28841_/A VGND VGND VPWR VPWR _34731_/D sky130_fd_sc_hd__clkbuf_1
XFILLER_120_904 VGND VGND VPWR VPWR sky130_ef_sc_hd__decap_12
X_21176_ _35740_/Q _35100_/Q _34460_/Q _33820_/Q _21034_/X _21035_/X VGND VGND VPWR
+ VPWR _21176_/X sky130_fd_sc_hd__mux4_1
XFILLER_46_1138 VGND VGND VPWR VPWR sky130_fd_sc_hd__decap_8
XFILLER_172_1146 VGND VGND VPWR VPWR sky130_fd_sc_hd__fill_2
XFILLER_46_1149 VGND VGND VPWR VPWR sky130_fd_sc_hd__decap_8
XFILLER_85_1198 VGND VGND VPWR VPWR sky130_ef_sc_hd__decap_12
XFILLER_104_466 VGND VGND VPWR VPWR sky130_fd_sc_hd__fill_1
XFILLER_117_99 VGND VGND VPWR VPWR sky130_fd_sc_hd__decap_4
X_20127_ _34304_/Q _34240_/Q _34176_/Q _34112_/Q _20095_/X _20096_/X VGND VGND VPWR
+ VPWR _20127_/X sky130_fd_sc_hd__mux4_1
XFILLER_133_1119 VGND VGND VPWR VPWR sky130_fd_sc_hd__fill_1
XFILLER_120_937 VGND VGND VPWR VPWR sky130_ef_sc_hd__decap_12
X_28772_ _27011_/X _34699_/Q _28776_/S VGND VGND VPWR VPWR _28773_/A sky130_fd_sc_hd__mux2_1
X_25984_ _25984_/A VGND VGND VPWR VPWR _33409_/D sky130_fd_sc_hd__clkbuf_1
XFILLER_58_531 VGND VGND VPWR VPWR sky130_fd_sc_hd__fill_1
XFILLER_213_1154 VGND VGND VPWR VPWR sky130_ef_sc_hd__decap_12
X_27723_ _34201_/Q _24280_/X _27739_/S VGND VGND VPWR VPWR _27724_/A sky130_fd_sc_hd__mux2_1
X_20058_ _34046_/Q _33982_/Q _33918_/Q _32254_/Q _20026_/X _20027_/X VGND VGND VPWR
+ VPWR _20058_/X sky130_fd_sc_hd__mux4_1
X_24935_ _22997_/X _32948_/Q _24937_/S VGND VGND VPWR VPWR _24936_/A sky130_fd_sc_hd__mux2_1
XTAP_3202 VGND VPWR sky130_fd_sc_hd__tapvpwrvgnd_1
XFILLER_46_726 VGND VGND VPWR VPWR sky130_ef_sc_hd__decap_12
XTAP_3213 VGND VPWR sky130_fd_sc_hd__tapvpwrvgnd_1
XFILLER_85_372 VGND VGND VPWR VPWR sky130_fd_sc_hd__decap_8
XTAP_3224 VGND VPWR sky130_fd_sc_hd__tapvpwrvgnd_1
X_27654_ _27654_/A VGND VGND VPWR VPWR _34168_/D sky130_fd_sc_hd__clkbuf_1
XTAP_3235 VGND VPWR sky130_fd_sc_hd__tapvpwrvgnd_1
X_24866_ _22895_/X _32915_/Q _24874_/S VGND VGND VPWR VPWR _24867_/A sky130_fd_sc_hd__mux2_1
XTAP_2501 VGND VPWR sky130_fd_sc_hd__tapvpwrvgnd_1
XTAP_3246 VGND VPWR sky130_fd_sc_hd__tapvpwrvgnd_1
XANTENNA_202 _32135_/D VGND VGND VPWR VPWR sky130_fd_sc_hd__diode_2
XTAP_2512 VGND VPWR sky130_fd_sc_hd__tapvpwrvgnd_1
XTAP_3257 VGND VPWR sky130_fd_sc_hd__tapvpwrvgnd_1
X_26605_ _26605_/A VGND VGND VPWR VPWR _33703_/D sky130_fd_sc_hd__clkbuf_1
XANTENNA_213 _32135_/D VGND VGND VPWR VPWR sky130_fd_sc_hd__diode_2
XTAP_2523 VGND VPWR sky130_fd_sc_hd__tapvpwrvgnd_1
XTAP_3268 VGND VPWR sky130_fd_sc_hd__tapvpwrvgnd_1
X_23817_ _23817_/A VGND VGND VPWR VPWR _32452_/D sky130_fd_sc_hd__clkbuf_1
XTAP_2534 VGND VPWR sky130_fd_sc_hd__tapvpwrvgnd_1
XTAP_3279 VGND VPWR sky130_fd_sc_hd__tapvpwrvgnd_1
XANTENNA_224 _32136_/D VGND VGND VPWR VPWR sky130_fd_sc_hd__diode_2
X_27585_ _27696_/S VGND VGND VPWR VPWR _27604_/S sky130_fd_sc_hd__buf_4
XTAP_1800 VGND VPWR sky130_fd_sc_hd__tapvpwrvgnd_1
XTAP_2545 VGND VPWR sky130_fd_sc_hd__tapvpwrvgnd_1
XFILLER_96_1250 VGND VGND VPWR VPWR sky130_fd_sc_hd__decap_4
XANTENNA_235 _32137_/D VGND VGND VPWR VPWR sky130_fd_sc_hd__diode_2
XTAP_1811 VGND VPWR sky130_fd_sc_hd__tapvpwrvgnd_1
X_24797_ _24797_/A VGND VGND VPWR VPWR _32882_/D sky130_fd_sc_hd__clkbuf_1
XTAP_2556 VGND VPWR sky130_fd_sc_hd__tapvpwrvgnd_1
XFILLER_148_1340 VGND VGND VPWR VPWR sky130_fd_sc_hd__decap_8
XANTENNA_246 _32137_/D VGND VGND VPWR VPWR sky130_fd_sc_hd__diode_2
XTAP_1822 VGND VPWR sky130_fd_sc_hd__tapvpwrvgnd_1
XANTENNA_257 _32138_/D VGND VGND VPWR VPWR sky130_fd_sc_hd__diode_2
XFILLER_183_1231 VGND VGND VPWR VPWR sky130_fd_sc_hd__fill_1
X_29324_ _23253_/X _34929_/Q _29332_/S VGND VGND VPWR VPWR _29325_/A sky130_fd_sc_hd__mux2_1
XTAP_2567 VGND VPWR sky130_fd_sc_hd__tapvpwrvgnd_1
X_26536_ _26536_/A VGND VGND VPWR VPWR _33671_/D sky130_fd_sc_hd__clkbuf_1
XANTENNA_268 _32138_/D VGND VGND VPWR VPWR sky130_fd_sc_hd__diode_2
XTAP_1833 VGND VPWR sky130_fd_sc_hd__tapvpwrvgnd_1
XTAP_2578 VGND VPWR sky130_fd_sc_hd__tapvpwrvgnd_1
XFILLER_199_764 VGND VGND VPWR VPWR sky130_fd_sc_hd__fill_2
XFILLER_198_241 VGND VGND VPWR VPWR sky130_fd_sc_hd__decap_8
X_23748_ _23748_/A VGND VGND VPWR VPWR _32419_/D sky130_fd_sc_hd__clkbuf_1
XTAP_1844 VGND VPWR sky130_fd_sc_hd__tapvpwrvgnd_1
XTAP_2589 VGND VPWR sky130_fd_sc_hd__tapvpwrvgnd_1
XANTENNA_279 _32139_/D VGND VGND VPWR VPWR sky130_fd_sc_hd__diode_2
XFILLER_199_775 VGND VGND VPWR VPWR sky130_fd_sc_hd__decap_8
XTAP_1855 VGND VPWR sky130_fd_sc_hd__tapvpwrvgnd_1
XFILLER_187_926 VGND VGND VPWR VPWR sky130_fd_sc_hd__decap_8
XFILLER_159_617 VGND VGND VPWR VPWR sky130_fd_sc_hd__decap_4
XTAP_1866 VGND VPWR sky130_fd_sc_hd__tapvpwrvgnd_1
XFILLER_92_1147 VGND VGND VPWR VPWR sky130_fd_sc_hd__fill_1
XFILLER_186_403 VGND VGND VPWR VPWR sky130_fd_sc_hd__decap_4
XFILLER_42_965 VGND VGND VPWR VPWR sky130_fd_sc_hd__decap_3
XFILLER_198_274 VGND VGND VPWR VPWR sky130_ef_sc_hd__decap_12
X_29255_ _23093_/X _34896_/Q _29269_/S VGND VGND VPWR VPWR _29256_/A sky130_fd_sc_hd__mux2_1
XFILLER_159_628 VGND VGND VPWR VPWR sky130_ef_sc_hd__decap_12
XFILLER_144_1237 VGND VGND VPWR VPWR sky130_fd_sc_hd__fill_1
XFILLER_109_1357 VGND VGND VPWR VPWR sky130_fd_sc_hd__decap_8
XTAP_1877 VGND VPWR sky130_fd_sc_hd__tapvpwrvgnd_1
XFILLER_57_1289 VGND VGND VPWR VPWR sky130_fd_sc_hd__fill_2
XFILLER_201_223 VGND VGND VPWR VPWR sky130_fd_sc_hd__fill_1
X_26467_ _26467_/A VGND VGND VPWR VPWR _33638_/D sky130_fd_sc_hd__clkbuf_1
XTAP_1888 VGND VPWR sky130_fd_sc_hd__tapvpwrvgnd_1
X_23679_ _23679_/A VGND VGND VPWR VPWR _32388_/D sky130_fd_sc_hd__clkbuf_1
XTAP_1899 VGND VPWR sky130_fd_sc_hd__tapvpwrvgnd_1
XFILLER_144_1259 VGND VGND VPWR VPWR sky130_fd_sc_hd__fill_1
X_28206_ _28206_/A VGND VGND VPWR VPWR _34430_/D sky130_fd_sc_hd__clkbuf_1
X_16220_ _16026_/X _16218_/X _16219_/X _16037_/X VGND VGND VPWR VPWR _16220_/X sky130_fd_sc_hd__a22o_1
X_25418_ _25418_/A VGND VGND VPWR VPWR _33145_/D sky130_fd_sc_hd__clkbuf_1
X_29186_ _34873_/Q _29185_/X _29204_/S VGND VGND VPWR VPWR _29187_/A sky130_fd_sc_hd__mux2_1
X_26398_ _25165_/X _33606_/Q _26404_/S VGND VGND VPWR VPWR _26399_/A sky130_fd_sc_hd__mux2_1
XFILLER_220_1114 VGND VGND VPWR VPWR sky130_ef_sc_hd__decap_12
X_16151_ _16014_/X _16149_/X _16150_/X _16023_/X VGND VGND VPWR VPWR _16151_/X sky130_fd_sc_hd__a22o_1
XFILLER_155_823 VGND VGND VPWR VPWR sky130_fd_sc_hd__fill_1
X_28137_ _28137_/A VGND VGND VPWR VPWR _34397_/D sky130_fd_sc_hd__clkbuf_1
XFILLER_139_385 VGND VGND VPWR VPWR sky130_fd_sc_hd__decap_6
X_25349_ _25349_/A VGND VGND VPWR VPWR _33112_/D sky130_fd_sc_hd__clkbuf_1
XFILLER_155_867 VGND VGND VPWR VPWR sky130_ef_sc_hd__decap_12
X_16082_ _35278_/Q _35214_/Q _35150_/Q _32270_/Q _16079_/X _16081_/X VGND VGND VPWR
+ VPWR _16082_/X sky130_fd_sc_hd__mux4_1
X_28068_ _26968_/X _34365_/Q _28072_/S VGND VGND VPWR VPWR _28069_/A sky130_fd_sc_hd__mux2_1
XFILLER_182_664 VGND VGND VPWR VPWR sky130_fd_sc_hd__decap_4
XFILLER_177_1057 VGND VGND VPWR VPWR sky130_fd_sc_hd__decap_6
X_27019_ _27019_/A VGND VGND VPWR VPWR _33869_/D sky130_fd_sc_hd__clkbuf_1
XFILLER_170_837 VGND VGND VPWR VPWR sky130_fd_sc_hd__fill_1
XFILLER_142_528 VGND VGND VPWR VPWR sky130_fd_sc_hd__decap_4
X_19910_ _35321_/Q _35257_/Q _35193_/Q _32313_/Q _19659_/X _19660_/X VGND VGND VPWR
+ VPWR _19910_/X sky130_fd_sc_hd__mux4_1
XFILLER_155_1300 VGND VGND VPWR VPWR sky130_fd_sc_hd__fill_1
XFILLER_170_859 VGND VGND VPWR VPWR sky130_fd_sc_hd__decap_8
XFILLER_194_1371 VGND VGND VPWR VPWR sky130_fd_sc_hd__fill_1
XFILLER_190_1202 VGND VGND VPWR VPWR sky130_fd_sc_hd__fill_2
XFILLER_155_1333 VGND VGND VPWR VPWR sky130_fd_sc_hd__decap_8
X_30030_ _30057_/S VGND VGND VPWR VPWR _30049_/S sky130_fd_sc_hd__clkbuf_8
XFILLER_194_1382 VGND VGND VPWR VPWR sky130_fd_sc_hd__decap_4
XFILLER_123_753 VGND VGND VPWR VPWR sky130_fd_sc_hd__fill_2
X_19841_ _19802_/X _19839_/X _19840_/X _19805_/X VGND VGND VPWR VPWR _19841_/X sky130_fd_sc_hd__a22o_1
XFILLER_174_83 VGND VGND VPWR VPWR sky130_fd_sc_hd__fill_1
XFILLER_29_1358 VGND VGND VPWR VPWR sky130_fd_sc_hd__fill_1
XFILLER_111_948 VGND VGND VPWR VPWR sky130_fd_sc_hd__decap_4
XFILLER_155_1399 VGND VGND VPWR VPWR sky130_fd_sc_hd__fill_1
X_19772_ _19772_/A VGND VGND VPWR VPWR _32117_/D sky130_fd_sc_hd__buf_2
XFILLER_96_648 VGND VGND VPWR VPWR sky130_fd_sc_hd__decap_4
X_16984_ _16980_/X _16983_/X _16775_/X VGND VGND VPWR VPWR _17014_/A sky130_fd_sc_hd__o21ba_1
XFILLER_122_296 VGND VGND VPWR VPWR sky130_ef_sc_hd__decap_12
XFILLER_95_136 VGND VGND VPWR VPWR sky130_ef_sc_hd__decap_12
XFILLER_27_1071 VGND VGND VPWR VPWR sky130_fd_sc_hd__decap_8
X_18723_ _18716_/X _18721_/X _18722_/X VGND VGND VPWR VPWR _18757_/A sky130_fd_sc_hd__o21ba_1
XTAP_5160 VGND VPWR sky130_fd_sc_hd__tapvpwrvgnd_1
X_31981_ _35166_/CLK _31981_/D VGND VGND VPWR VPWR _31981_/Q sky130_fd_sc_hd__dfxtp_1
XFILLER_77_873 VGND VGND VPWR VPWR sky130_ef_sc_hd__decap_12
XTAP_5171 VGND VPWR sky130_fd_sc_hd__tapvpwrvgnd_1
XTAP_5182 VGND VPWR sky130_fd_sc_hd__tapvpwrvgnd_1
XFILLER_76_361 VGND VGND VPWR VPWR sky130_fd_sc_hd__decap_3
XFILLER_231_1287 VGND VGND VPWR VPWR sky130_fd_sc_hd__fill_1
XTAP_5193 VGND VPWR sky130_fd_sc_hd__tapvpwrvgnd_1
X_18654_ _33238_/Q _36118_/Q _33110_/Q _33046_/Q _18652_/X _18653_/X VGND VGND VPWR
+ VPWR _18654_/X sky130_fd_sc_hd__mux4_1
X_33720_ _34297_/CLK _33720_/D VGND VGND VPWR VPWR _33720_/Q sky130_fd_sc_hd__dfxtp_1
X_30932_ _35691_/Q _29141_/X _30932_/S VGND VGND VPWR VPWR _30933_/A sky130_fd_sc_hd__mux2_1
XFILLER_190_93 VGND VGND VPWR VPWR sky130_fd_sc_hd__decap_3
XTAP_4470 VGND VPWR sky130_fd_sc_hd__tapvpwrvgnd_1
Xclkbuf_leaf_6_CLK clkbuf_leaf_9_CLK/A VGND VGND VPWR VPWR _35034_/CLK sky130_fd_sc_hd__clkbuf_16
XFILLER_149_1104 VGND VGND VPWR VPWR sky130_fd_sc_hd__decap_8
XFILLER_225_838 VGND VGND VPWR VPWR sky130_fd_sc_hd__fill_2
XTAP_4481 VGND VPWR sky130_fd_sc_hd__tapvpwrvgnd_1
XTAP_4492 VGND VPWR sky130_fd_sc_hd__tapvpwrvgnd_1
X_17605_ _35577_/Q _35513_/Q _35449_/Q _35385_/Q _17603_/X _17604_/X VGND VGND VPWR
+ VPWR _17605_/X sky130_fd_sc_hd__mux4_2
XFILLER_91_353 VGND VGND VPWR VPWR sky130_fd_sc_hd__fill_1
X_30863_ _30863_/A VGND VGND VPWR VPWR _35658_/D sky130_fd_sc_hd__clkbuf_1
X_18585_ _32980_/Q _32916_/Q _32852_/Q _32788_/Q _18583_/X _18584_/X VGND VGND VPWR
+ VPWR _18585_/X sky130_fd_sc_hd__mux4_1
XFILLER_36_269 VGND VGND VPWR VPWR sky130_fd_sc_hd__fill_2
XFILLER_52_718 VGND VGND VPWR VPWR sky130_fd_sc_hd__fill_1
X_33651_ _34227_/CLK _33651_/D VGND VGND VPWR VPWR _33651_/Q sky130_fd_sc_hd__dfxtp_1
XTAP_3780 VGND VPWR sky130_fd_sc_hd__tapvpwrvgnd_1
XFILLER_64_589 VGND VGND VPWR VPWR sky130_fd_sc_hd__decap_6
XFILLER_51_206 VGND VGND VPWR VPWR sky130_ef_sc_hd__decap_12
XFILLER_91_375 VGND VGND VPWR VPWR sky130_fd_sc_hd__fill_1
XTAP_3791 VGND VPWR sky130_fd_sc_hd__tapvpwrvgnd_1
XFILLER_33_921 VGND VGND VPWR VPWR sky130_fd_sc_hd__decap_8
X_17536_ _33207_/Q _32567_/Q _35959_/Q _35895_/Q _17427_/X _17428_/X VGND VGND VPWR
+ VPWR _17536_/X sky130_fd_sc_hd__mux4_1
X_32602_ _32666_/CLK _32602_/D VGND VGND VPWR VPWR _32602_/Q sky130_fd_sc_hd__dfxtp_1
X_33582_ _34288_/CLK _33582_/D VGND VGND VPWR VPWR _33582_/Q sky130_fd_sc_hd__dfxtp_1
XFILLER_17_494 VGND VGND VPWR VPWR sky130_fd_sc_hd__fill_1
X_30794_ _30794_/A VGND VGND VPWR VPWR _35625_/D sky130_fd_sc_hd__clkbuf_1
XANTENNA_780 _22604_/A VGND VGND VPWR VPWR sky130_fd_sc_hd__diode_2
XFILLER_127_1435 VGND VGND VPWR VPWR sky130_fd_sc_hd__decap_3
XFILLER_32_442 VGND VGND VPWR VPWR sky130_fd_sc_hd__decap_8
XFILLER_33_965 VGND VGND VPWR VPWR sky130_ef_sc_hd__decap_12
XANTENNA_791 _22693_/A VGND VGND VPWR VPWR sky130_fd_sc_hd__diode_2
XFILLER_232_381 VGND VGND VPWR VPWR sky130_fd_sc_hd__decap_4
XFILLER_199_91 VGND VGND VPWR VPWR sky130_fd_sc_hd__fill_1
XFILLER_177_414 VGND VGND VPWR VPWR sky130_ef_sc_hd__decap_12
X_32533_ _35925_/CLK _32533_/D VGND VGND VPWR VPWR _32533_/Q sky130_fd_sc_hd__dfxtp_1
X_35321_ _35577_/CLK _35321_/D VGND VGND VPWR VPWR _35321_/Q sky130_fd_sc_hd__dfxtp_1
XFILLER_127_1457 VGND VGND VPWR VPWR sky130_fd_sc_hd__decap_4
X_17467_ _34549_/Q _32437_/Q _34421_/Q _34357_/Q _17225_/X _17226_/X VGND VGND VPWR
+ VPWR _17467_/X sky130_fd_sc_hd__mux4_1
XFILLER_32_475 VGND VGND VPWR VPWR sky130_fd_sc_hd__fill_1
XFILLER_177_447 VGND VGND VPWR VPWR sky130_fd_sc_hd__fill_1
XFILLER_242_1361 VGND VGND VPWR VPWR sky130_fd_sc_hd__decap_6
XFILLER_203_1312 VGND VGND VPWR VPWR sky130_fd_sc_hd__decap_3
X_16418_ _17796_/A VGND VGND VPWR VPWR _16418_/X sky130_fd_sc_hd__buf_4
X_19206_ _34533_/Q _32421_/Q _34405_/Q _34341_/Q _19172_/X _19173_/X VGND VGND VPWR
+ VPWR _19206_/X sky130_fd_sc_hd__mux4_1
X_32464_ _36049_/CLK _32464_/D VGND VGND VPWR VPWR _32464_/Q sky130_fd_sc_hd__dfxtp_1
X_35252_ _35252_/CLK _35252_/D VGND VGND VPWR VPWR _35252_/Q sky130_fd_sc_hd__dfxtp_1
X_17398_ _17394_/X _17397_/X _17161_/X VGND VGND VPWR VPWR _17399_/D sky130_fd_sc_hd__o21ba_1
XFILLER_158_672 VGND VGND VPWR VPWR sky130_fd_sc_hd__fill_2
X_31415_ _31415_/A VGND VGND VPWR VPWR _35919_/D sky130_fd_sc_hd__clkbuf_1
X_34203_ _34267_/CLK _34203_/D VGND VGND VPWR VPWR _34203_/Q sky130_fd_sc_hd__dfxtp_1
X_19137_ _35043_/Q _34979_/Q _34915_/Q _34851_/Q _19103_/X _19104_/X VGND VGND VPWR
+ VPWR _19137_/X sky130_fd_sc_hd__mux4_1
X_16349_ _17901_/A VGND VGND VPWR VPWR _16349_/X sky130_fd_sc_hd__clkbuf_4
X_35183_ _35564_/CLK _35183_/D VGND VGND VPWR VPWR _35183_/Q sky130_fd_sc_hd__dfxtp_1
XFILLER_9_671 VGND VGND VPWR VPWR sky130_fd_sc_hd__fill_1
X_32395_ _36172_/CLK _32395_/D VGND VGND VPWR VPWR _32395_/Q sky130_fd_sc_hd__dfxtp_1
XFILLER_34_1097 VGND VGND VPWR VPWR sky130_fd_sc_hd__fill_1
XFILLER_8_170 VGND VGND VPWR VPWR sky130_fd_sc_hd__fill_1
X_34134_ _34197_/CLK _34134_/D VGND VGND VPWR VPWR _34134_/Q sky130_fd_sc_hd__dfxtp_1
XFILLER_146_867 VGND VGND VPWR VPWR sky130_fd_sc_hd__fill_1
X_31346_ _35887_/Q input27/X _31358_/S VGND VGND VPWR VPWR _31347_/A sky130_fd_sc_hd__mux2_1
X_19068_ _34274_/Q _34210_/Q _34146_/Q _34082_/Q _19036_/X _19037_/X VGND VGND VPWR
+ VPWR _19068_/X sky130_fd_sc_hd__mux4_1
XFILLER_172_141 VGND VGND VPWR VPWR sky130_ef_sc_hd__decap_12
XFILLER_145_355 VGND VGND VPWR VPWR sky130_ef_sc_hd__decap_12
XFILLER_12_1362 VGND VGND VPWR VPWR sky130_fd_sc_hd__fill_1
XFILLER_12_1373 VGND VGND VPWR VPWR sky130_fd_sc_hd__decap_6
X_18019_ _35845_/Q _32224_/Q _35717_/Q _35653_/Q _15989_/X _15991_/X VGND VGND VPWR
+ VPWR _18019_/X sky130_fd_sc_hd__mux4_1
X_34065_ _34262_/CLK _34065_/D VGND VGND VPWR VPWR _34065_/Q sky130_fd_sc_hd__dfxtp_1
X_31277_ _35854_/Q input1/X _31295_/S VGND VGND VPWR VPWR _31278_/A sky130_fd_sc_hd__mux2_1
XFILLER_236_1121 VGND VGND VPWR VPWR sky130_fd_sc_hd__decap_8
XFILLER_99_420 VGND VGND VPWR VPWR sky130_fd_sc_hd__decap_6
X_33016_ _36089_/CLK _33016_/D VGND VGND VPWR VPWR _33016_/Q sky130_fd_sc_hd__dfxtp_1
X_21030_ _22442_/A VGND VGND VPWR VPWR _21030_/X sky130_fd_sc_hd__clkbuf_4
X_30228_ _30228_/A VGND VGND VPWR VPWR _35357_/D sky130_fd_sc_hd__clkbuf_1
XFILLER_236_1165 VGND VGND VPWR VPWR sky130_fd_sc_hd__fill_1
XFILLER_141_550 VGND VGND VPWR VPWR sky130_fd_sc_hd__decap_8
XFILLER_234_20 VGND VGND VPWR VPWR sky130_fd_sc_hd__decap_8
XFILLER_173_1466 VGND VGND VPWR VPWR sky130_ef_sc_hd__decap_12
XFILLER_248_919 VGND VGND VPWR VPWR sky130_fd_sc_hd__fill_1
XFILLER_99_486 VGND VGND VPWR VPWR sky130_fd_sc_hd__fill_1
XFILLER_102_937 VGND VGND VPWR VPWR sky130_fd_sc_hd__decap_3
XFILLER_232_1029 VGND VGND VPWR VPWR sky130_fd_sc_hd__decap_6
X_30159_ _35325_/Q _29197_/X _30163_/S VGND VGND VPWR VPWR _30160_/A sky130_fd_sc_hd__mux2_1
XFILLER_219_109 VGND VGND VPWR VPWR sky130_fd_sc_hd__decap_3
XFILLER_68_840 VGND VGND VPWR VPWR sky130_fd_sc_hd__decap_6
XFILLER_132_1130 VGND VGND VPWR VPWR sky130_ef_sc_hd__decap_12