* NGSPICE file created from multiply_add_64x64.ext - technology: sky130A

* Black-box entry subcircuit for sky130_fd_sc_hd__fill_1 abstract view
.subckt sky130_fd_sc_hd__fill_1 VGND VNB VPB VPWR
.ends

* Black-box entry subcircuit for sky130_fd_sc_hd__decap_6 abstract view
.subckt sky130_fd_sc_hd__decap_6 VGND VNB VPB VPWR
.ends

* Black-box entry subcircuit for sky130_fd_sc_hd__dfxtp_1 abstract view
.subckt sky130_fd_sc_hd__dfxtp_1 CLK D VGND VNB VPB VPWR Q
.ends

* Black-box entry subcircuit for sky130_fd_sc_hd__fa_1 abstract view
.subckt sky130_fd_sc_hd__fa_1 A B CIN VGND VNB VPB VPWR COUT SUM
.ends

* Black-box entry subcircuit for sky130_fd_sc_hd__decap_8 abstract view
.subckt sky130_fd_sc_hd__decap_8 VGND VNB VPB VPWR
.ends

* Black-box entry subcircuit for sky130_ef_sc_hd__decap_12 abstract view
.subckt sky130_ef_sc_hd__decap_12 VGND VNB VPB VPWR
.ends

* Black-box entry subcircuit for sky130_fd_sc_hd__decap_3 abstract view
.subckt sky130_fd_sc_hd__decap_3 VGND VNB VPB VPWR
.ends

* Black-box entry subcircuit for sky130_fd_sc_hd__decap_4 abstract view
.subckt sky130_fd_sc_hd__decap_4 VGND VNB VPB VPWR
.ends

* Black-box entry subcircuit for sky130_fd_sc_hd__xor2_1 abstract view
.subckt sky130_fd_sc_hd__xor2_1 A B VGND VNB VPB VPWR X
.ends

* Black-box entry subcircuit for sky130_fd_sc_hd__fill_2 abstract view
.subckt sky130_fd_sc_hd__fill_2 VGND VNB VPB VPWR
.ends

* Black-box entry subcircuit for sky130_fd_sc_hd__buf_4 abstract view
.subckt sky130_fd_sc_hd__buf_4 A VGND VNB VPB VPWR X
.ends

* Black-box entry subcircuit for sky130_fd_sc_hd__buf_6 abstract view
.subckt sky130_fd_sc_hd__buf_6 A VGND VNB VPB VPWR X
.ends

* Black-box entry subcircuit for sky130_fd_sc_hd__clkbuf_4 abstract view
.subckt sky130_fd_sc_hd__clkbuf_4 A VGND VNB VPB VPWR X
.ends

* Black-box entry subcircuit for sky130_fd_sc_hd__tapvpwrvgnd_1 abstract view
.subckt sky130_fd_sc_hd__tapvpwrvgnd_1 VGND VPWR
.ends

* Black-box entry subcircuit for sky130_fd_sc_hd__diode_2 abstract view
.subckt sky130_fd_sc_hd__diode_2 DIODE VGND VNB VPB VPWR
.ends

* Black-box entry subcircuit for sky130_fd_sc_hd__a22o_1 abstract view
.subckt sky130_fd_sc_hd__a22o_1 A1 A2 B1 B2 VGND VNB VPB VPWR X
.ends

* Black-box entry subcircuit for sky130_fd_sc_hd__ha_1 abstract view
.subckt sky130_fd_sc_hd__ha_1 A B VGND VNB VPB VPWR COUT SUM
.ends

* Black-box entry subcircuit for sky130_fd_sc_hd__clkbuf_8 abstract view
.subckt sky130_fd_sc_hd__clkbuf_8 A VGND VNB VPB VPWR X
.ends

* Black-box entry subcircuit for sky130_fd_sc_hd__and2_1 abstract view
.subckt sky130_fd_sc_hd__and2_1 A B VGND VNB VPB VPWR X
.ends

* Black-box entry subcircuit for sky130_fd_sc_hd__fa_2 abstract view
.subckt sky130_fd_sc_hd__fa_2 A B CIN VGND VNB VPB VPWR COUT SUM
.ends

* Black-box entry subcircuit for sky130_fd_sc_hd__inv_1 abstract view
.subckt sky130_fd_sc_hd__inv_1 A VGND VNB VPB VPWR Y
.ends

* Black-box entry subcircuit for sky130_fd_sc_hd__buf_2 abstract view
.subckt sky130_fd_sc_hd__buf_2 A VGND VNB VPB VPWR X
.ends

* Black-box entry subcircuit for sky130_fd_sc_hd__buf_8 abstract view
.subckt sky130_fd_sc_hd__buf_8 A VGND VNB VPB VPWR X
.ends

* Black-box entry subcircuit for sky130_fd_sc_hd__a21o_1 abstract view
.subckt sky130_fd_sc_hd__a21o_1 A1 A2 B1 VGND VNB VPB VPWR X
.ends

* Black-box entry subcircuit for sky130_fd_sc_hd__conb_1 abstract view
.subckt sky130_fd_sc_hd__conb_1 VGND VNB VPB VPWR HI LO
.ends

* Black-box entry subcircuit for sky130_fd_sc_hd__dfxtp_2 abstract view
.subckt sky130_fd_sc_hd__dfxtp_2 CLK D VGND VNB VPB VPWR Q
.ends

* Black-box entry subcircuit for sky130_fd_sc_hd__clkbuf_16 abstract view
.subckt sky130_fd_sc_hd__clkbuf_16 A VGND VNB VPB VPWR X
.ends

* Black-box entry subcircuit for sky130_fd_sc_hd__a21o_2 abstract view
.subckt sky130_fd_sc_hd__a21o_2 A1 A2 B1 VGND VNB VPB VPWR X
.ends

* Black-box entry subcircuit for sky130_fd_sc_hd__ha_2 abstract view
.subckt sky130_fd_sc_hd__ha_2 A B VGND VNB VPB VPWR COUT SUM
.ends

* Black-box entry subcircuit for sky130_fd_sc_hd__clkbuf_1 abstract view
.subckt sky130_fd_sc_hd__clkbuf_1 A VGND VNB VPB VPWR X
.ends

* Black-box entry subcircuit for sky130_fd_sc_hd__a32o_1 abstract view
.subckt sky130_fd_sc_hd__a32o_1 A1 A2 A3 B1 B2 VGND VNB VPB VPWR X
.ends

* Black-box entry subcircuit for sky130_fd_sc_hd__a32o_2 abstract view
.subckt sky130_fd_sc_hd__a32o_2 A1 A2 A3 B1 B2 VGND VNB VPB VPWR X
.ends

* Black-box entry subcircuit for sky130_fd_sc_hd__a32o_4 abstract view
.subckt sky130_fd_sc_hd__a32o_4 A1 A2 A3 B1 B2 VGND VNB VPB VPWR X
.ends

* Black-box entry subcircuit for sky130_fd_sc_hd__dlymetal6s2s_1 abstract view
.subckt sky130_fd_sc_hd__dlymetal6s2s_1 A VGND VNB VPB VPWR X
.ends

* Black-box entry subcircuit for sky130_fd_sc_hd__clkbuf_2 abstract view
.subckt sky130_fd_sc_hd__clkbuf_2 A VGND VNB VPB VPWR X
.ends

* Black-box entry subcircuit for sky130_fd_sc_hd__xor2_2 abstract view
.subckt sky130_fd_sc_hd__xor2_2 A B VGND VNB VPB VPWR X
.ends

* Black-box entry subcircuit for sky130_fd_sc_hd__xor2_4 abstract view
.subckt sky130_fd_sc_hd__xor2_4 A B VGND VNB VPB VPWR X
.ends

* Black-box entry subcircuit for sky130_fd_sc_hd__dfxtp_4 abstract view
.subckt sky130_fd_sc_hd__dfxtp_4 CLK D VGND VNB VPB VPWR Q
.ends

* Black-box entry subcircuit for sky130_fd_sc_hd__a21o_4 abstract view
.subckt sky130_fd_sc_hd__a21o_4 A1 A2 B1 VGND VNB VPB VPWR X
.ends

* Black-box entry subcircuit for sky130_fd_sc_hd__buf_12 abstract view
.subckt sky130_fd_sc_hd__buf_12 A VGND VNB VPB VPWR X
.ends

* Black-box entry subcircuit for sky130_fd_sc_hd__and2_2 abstract view
.subckt sky130_fd_sc_hd__and2_2 A B VGND VNB VPB VPWR X
.ends

.subckt multiply_add_64x64 VGND VPWR a[0] a[10] a[11] a[12] a[13] a[14] a[15] a[16]
+ a[17] a[18] a[19] a[1] a[20] a[21] a[22] a[23] a[24] a[25] a[26] a[27] a[28] a[29]
+ a[2] a[30] a[31] a[32] a[33] a[34] a[35] a[36] a[37] a[38] a[39] a[3] a[40] a[41]
+ a[42] a[43] a[44] a[45] a[46] a[47] a[48] a[49] a[4] a[50] a[51] a[52] a[53] a[54]
+ a[55] a[56] a[57] a[58] a[59] a[5] a[60] a[61] a[62] a[63] a[6] a[7] a[8] a[9] b[0]
+ b[10] b[11] b[12] b[13] b[14] b[15] b[16] b[17] b[18] b[19] b[1] b[20] b[21] b[22]
+ b[23] b[24] b[25] b[26] b[27] b[28] b[29] b[2] b[30] b[31] b[32] b[33] b[34] b[35]
+ b[36] b[37] b[38] b[39] b[3] b[40] b[41] b[42] b[43] b[44] b[45] b[46] b[47] b[48]
+ b[49] b[4] b[50] b[51] b[52] b[53] b[54] b[55] b[56] b[57] b[58] b[59] b[5] b[60]
+ b[61] b[62] b[63] b[6] b[7] b[8] b[9] c[0] c[100] c[101] c[102] c[103] c[104] c[105]
+ c[106] c[107] c[108] c[109] c[10] c[110] c[111] c[112] c[113] c[114] c[115] c[116]
+ c[117] c[118] c[119] c[11] c[120] c[121] c[122] c[123] c[124] c[125] c[126] c[127]
+ c[12] c[13] c[14] c[15] c[16] c[17] c[18] c[19] c[1] c[20] c[21] c[22] c[23] c[24]
+ c[25] c[26] c[27] c[28] c[29] c[2] c[30] c[31] c[32] c[33] c[34] c[35] c[36] c[37]
+ c[38] c[39] c[3] c[40] c[41] c[42] c[43] c[44] c[45] c[46] c[47] c[48] c[49] c[4]
+ c[50] c[51] c[52] c[53] c[54] c[55] c[56] c[57] c[58] c[59] c[5] c[60] c[61] c[62]
+ c[63] c[64] c[65] c[66] c[67] c[68] c[69] c[6] c[70] c[71] c[72] c[73] c[74] c[75]
+ c[76] c[77] c[78] c[79] c[7] c[80] c[81] c[82] c[83] c[84] c[85] c[86] c[87] c[88]
+ c[89] c[8] c[90] c[91] c[92] c[93] c[94] c[95] c[96] c[97] c[98] c[99] c[9] clk
+ o[0] o[100] o[101] o[102] o[103] o[104] o[105] o[106] o[107] o[108] o[109] o[10]
+ o[110] o[111] o[112] o[113] o[114] o[115] o[116] o[117] o[118] o[119] o[11] o[120]
+ o[121] o[122] o[123] o[124] o[125] o[126] o[127] o[12] o[13] o[14] o[15] o[16] o[17]
+ o[18] o[19] o[1] o[20] o[21] o[22] o[23] o[24] o[25] o[26] o[27] o[28] o[29] o[2]
+ o[30] o[31] o[32] o[33] o[34] o[35] o[36] o[37] o[38] o[39] o[3] o[40] o[41] o[42]
+ o[43] o[44] o[45] o[46] o[47] o[48] o[49] o[4] o[50] o[51] o[52] o[53] o[54] o[55]
+ o[56] o[57] o[58] o[59] o[5] o[60] o[61] o[62] o[63] o[64] o[65] o[66] o[67] o[68]
+ o[69] o[6] o[70] o[71] o[72] o[73] o[74] o[75] o[76] o[77] o[78] o[79] o[7] o[80]
+ o[81] o[82] o[83] o[84] o[85] o[86] o[87] o[88] o[89] o[8] o[90] o[91] o[92] o[93]
+ o[94] o[95] o[96] o[97] o[98] o[99] o[9] rst
XFILLER_39_233 VGND VGND VPWR VPWR sky130_fd_sc_hd__fill_1
XFILLER_28_918 VGND VGND VPWR VPWR sky130_fd_sc_hd__decap_6
X_0367_ clknet_leaf_190_clk booth_b44_m31 VGND VGND VPWR VPWR pp_row75_17 sky130_fd_sc_hd__dfxtp_1
Xdadda_fa_1_57_8 c$16 s$19 s$21 VGND VGND VPWR VPWR c$490 s$491 sky130_fd_sc_hd__fa_1
XFILLER_95_895 VGND VGND VPWR VPWR sky130_fd_sc_hd__fill_1
XFILLER_27_439 VGND VGND VPWR VPWR sky130_fd_sc_hd__decap_8
X_2106_ clknet_leaf_33_clk booth_b46_m12 VGND VGND VPWR VPWR pp_row58_23 sky130_fd_sc_hd__dfxtp_1
X_0298_ clknet_leaf_201_clk booth_b36_m37 VGND VGND VPWR VPWR pp_row73_14 sky130_fd_sc_hd__dfxtp_1
X_2037_ clknet_leaf_83_clk booth_b46_m10 VGND VGND VPWR VPWR pp_row56_23 sky130_fd_sc_hd__dfxtp_1
XFILLER_82_589 VGND VGND VPWR VPWR sky130_ef_sc_hd__decap_12
XFILLER_36_995 VGND VGND VPWR VPWR sky130_fd_sc_hd__decap_3
Xdadda_fa_2_104_0 net1906 pp_row104_1 pp_row104_2 VGND VGND VPWR VPWR c$1956 s$1957
+ sky130_fd_sc_hd__fa_1
XFILLER_35_472 VGND VGND VPWR VPWR sky130_ef_sc_hd__decap_12
XFILLER_63_781 VGND VGND VPWR VPWR sky130_fd_sc_hd__decap_3
XFILLER_168_606 VGND VGND VPWR VPWR sky130_ef_sc_hd__decap_12
XFILLER_23_645 VGND VGND VPWR VPWR sky130_fd_sc_hd__decap_3
XFILLER_161_1017 VGND VGND VPWR VPWR sky130_fd_sc_hd__fill_1
XFILLER_168_639 VGND VGND VPWR VPWR sky130_fd_sc_hd__decap_4
XFILLER_167_105 VGND VGND VPWR VPWR sky130_fd_sc_hd__decap_6
XFILLER_168_29 VGND VGND VPWR VPWR sky130_ef_sc_hd__decap_12
XFILLER_50_475 VGND VGND VPWR VPWR sky130_fd_sc_hd__fill_1
XU$$1290 t$5064 net1663 VGND VGND VPWR VPWR booth_b18_m25 sky130_fd_sc_hd__xor2_1
XFILLER_167_149 VGND VGND VPWR VPWR sky130_ef_sc_hd__decap_12
XFILLER_183_609 VGND VGND VPWR VPWR sky130_fd_sc_hd__decap_6
XFILLER_139_9 VGND VGND VPWR VPWR sky130_fd_sc_hd__fill_1
XFILLER_10_339 VGND VGND VPWR VPWR sky130_ef_sc_hd__decap_12
XFILLER_149_886 VGND VGND VPWR VPWR sky130_fd_sc_hd__decap_8
XFILLER_149_897 VGND VGND VPWR VPWR sky130_fd_sc_hd__decap_8
XFILLER_175_193 VGND VGND VPWR VPWR sky130_ef_sc_hd__decap_12
XFILLER_191_653 VGND VGND VPWR VPWR sky130_ef_sc_hd__decap_12
XFILLER_190_141 VGND VGND VPWR VPWR sky130_ef_sc_hd__decap_12
XFILLER_151_517 VGND VGND VPWR VPWR sky130_fd_sc_hd__fill_2
Xdadda_fa_1_90_2 pp_row90_6 pp_row90_7 pp_row90_8 VGND VGND VPWR VPWR c$1022 s$1023
+ sky130_fd_sc_hd__fa_1
XFILLER_191_697 VGND VGND VPWR VPWR sky130_ef_sc_hd__decap_12
XFILLER_123_219 VGND VGND VPWR VPWR sky130_fd_sc_hd__decap_4
Xdadda_fa_1_83_1 pp_row83_3 pp_row83_4 pp_row83_5 VGND VGND VPWR VPWR c$940 s$941
+ sky130_fd_sc_hd__fa_1
XFILLER_104_433 VGND VGND VPWR VPWR sky130_ef_sc_hd__decap_12
XFILLER_46_1127 VGND VGND VPWR VPWR sky130_fd_sc_hd__fill_2
XFILLER_77_15 VGND VGND VPWR VPWR sky130_fd_sc_hd__decap_3
XFILLER_77_37 VGND VGND VPWR VPWR sky130_fd_sc_hd__decap_8
Xdadda_fa_4_60_0 s$1457 c$2310 c$2312 VGND VGND VPWR VPWR c$3050 s$3051 sky130_fd_sc_hd__fa_1
XFILLER_131_241 VGND VGND VPWR VPWR sky130_fd_sc_hd__fill_1
Xfanout820 net821 VGND VGND VPWR VPWR net820 sky130_fd_sc_hd__buf_4
XFILLER_89_166 VGND VGND VPWR VPWR sky130_fd_sc_hd__fill_2
Xdadda_fa_1_76_0 pp_row76_5 pp_row76_6 pp_row76_7 VGND VGND VPWR VPWR c$816 s$817
+ sky130_fd_sc_hd__fa_1
XFILLER_104_477 VGND VGND VPWR VPWR sky130_fd_sc_hd__decap_3
XFILLER_117_99 VGND VGND VPWR VPWR sky130_ef_sc_hd__decap_12
Xfanout831 net832 VGND VGND VPWR VPWR net831 sky130_fd_sc_hd__buf_4
XFILLER_120_937 VGND VGND VPWR VPWR sky130_fd_sc_hd__fill_2
XFILLER_131_274 VGND VGND VPWR VPWR sky130_fd_sc_hd__decap_6
XFILLER_133_1119 VGND VGND VPWR VPWR sky130_fd_sc_hd__fill_1
Xfanout842 net843 VGND VGND VPWR VPWR net842 sky130_fd_sc_hd__buf_6
Xfanout853 net854 VGND VGND VPWR VPWR net853 sky130_fd_sc_hd__clkbuf_4
Xfanout864 net865 VGND VGND VPWR VPWR net864 sky130_fd_sc_hd__buf_4
XFILLER_131_296 VGND VGND VPWR VPWR sky130_ef_sc_hd__decap_12
Xfanout875 net877 VGND VGND VPWR VPWR net875 sky130_fd_sc_hd__buf_4
XFILLER_58_553 VGND VGND VPWR VPWR sky130_fd_sc_hd__decap_4
Xfanout886 net888 VGND VGND VPWR VPWR net886 sky130_fd_sc_hd__buf_4
XFILLER_92_309 VGND VGND VPWR VPWR sky130_fd_sc_hd__decap_8
Xfanout897 net898 VGND VGND VPWR VPWR net897 sky130_fd_sc_hd__clkbuf_4
XU$$3609 t$6249 net1319 VGND VGND VPWR VPWR booth_b52_m20 sky130_fd_sc_hd__xor2_1
XTAP_3202 VGND VPWR sky130_fd_sc_hd__tapvpwrvgnd_1
XTAP_3213 VGND VPWR sky130_fd_sc_hd__tapvpwrvgnd_1
XTAP_3224 VGND VPWR sky130_fd_sc_hd__tapvpwrvgnd_1
XTAP_3235 VGND VPWR sky130_fd_sc_hd__tapvpwrvgnd_1
XTAP_2501 VGND VPWR sky130_fd_sc_hd__tapvpwrvgnd_1
XU$$2908 t$5891 net1372 VGND VGND VPWR VPWR booth_b42_m12 sky130_fd_sc_hd__xor2_1
XFILLER_172_3 VGND VGND VPWR VPWR sky130_ef_sc_hd__decap_12
XTAP_3246 VGND VPWR sky130_fd_sc_hd__tapvpwrvgnd_1
XANTENNA_202 net1048 VGND VGND VPWR VPWR sky130_fd_sc_hd__diode_2
XU$$2919 net1151 net519 net1140 net792 VGND VGND VPWR VPWR t$5897 sky130_fd_sc_hd__a22o_1
XTAP_2512 VGND VPWR sky130_fd_sc_hd__tapvpwrvgnd_1
XTAP_3257 VGND VPWR sky130_fd_sc_hd__tapvpwrvgnd_1
XANTENNA_213 net1109 VGND VGND VPWR VPWR sky130_fd_sc_hd__diode_2
XTAP_2523 VGND VPWR sky130_fd_sc_hd__tapvpwrvgnd_1
XTAP_3268 VGND VPWR sky130_fd_sc_hd__tapvpwrvgnd_1
XTAP_2534 VGND VPWR sky130_fd_sc_hd__tapvpwrvgnd_1
XTAP_3279 VGND VPWR sky130_fd_sc_hd__tapvpwrvgnd_1
XANTENNA_224 net1218 VGND VGND VPWR VPWR sky130_fd_sc_hd__diode_2
XFILLER_26_41 VGND VGND VPWR VPWR sky130_fd_sc_hd__decap_3
XTAP_1800 VGND VPWR sky130_fd_sc_hd__tapvpwrvgnd_1
Xdadda_ha_5_124_1 pp_row124_3 pp_row124_4 VGND VGND VPWR VPWR c$3894 s$3895 sky130_fd_sc_hd__ha_1
XTAP_2545 VGND VPWR sky130_fd_sc_hd__tapvpwrvgnd_1
XFILLER_61_729 VGND VGND VPWR VPWR sky130_fd_sc_hd__decap_3
XTAP_1811 VGND VPWR sky130_fd_sc_hd__tapvpwrvgnd_1
XTAP_2556 VGND VPWR sky130_fd_sc_hd__tapvpwrvgnd_1
XANTENNA_235 net1384 VGND VGND VPWR VPWR sky130_fd_sc_hd__diode_2
XTAP_1822 VGND VPWR sky130_fd_sc_hd__tapvpwrvgnd_1
XANTENNA_246 net1559 VGND VGND VPWR VPWR sky130_fd_sc_hd__diode_2
XANTENNA_257 net1640 VGND VGND VPWR VPWR sky130_fd_sc_hd__diode_2
XTAP_2567 VGND VPWR sky130_fd_sc_hd__tapvpwrvgnd_1
XANTENNA_268 net1728 VGND VGND VPWR VPWR sky130_fd_sc_hd__diode_2
XFILLER_13_100 VGND VGND VPWR VPWR sky130_fd_sc_hd__fill_2
XTAP_1833 VGND VPWR sky130_fd_sc_hd__tapvpwrvgnd_1
XTAP_2578 VGND VPWR sky130_fd_sc_hd__tapvpwrvgnd_1
XFILLER_26_85 VGND VGND VPWR VPWR sky130_fd_sc_hd__fill_1
XTAP_1844 VGND VPWR sky130_fd_sc_hd__tapvpwrvgnd_1
XTAP_2589 VGND VPWR sky130_fd_sc_hd__tapvpwrvgnd_1
XTAP_1855 VGND VPWR sky130_fd_sc_hd__tapvpwrvgnd_1
XANTENNA_279 c$4242 VGND VGND VPWR VPWR sky130_fd_sc_hd__diode_2
XTAP_1866 VGND VPWR sky130_fd_sc_hd__tapvpwrvgnd_1
XFILLER_42_965 VGND VGND VPWR VPWR sky130_ef_sc_hd__decap_12
XFILLER_158_105 VGND VGND VPWR VPWR sky130_ef_sc_hd__decap_12
XTAP_1877 VGND VPWR sky130_fd_sc_hd__tapvpwrvgnd_1
XFILLER_14_678 VGND VGND VPWR VPWR sky130_fd_sc_hd__fill_2
XTAP_1888 VGND VPWR sky130_fd_sc_hd__tapvpwrvgnd_1
XTAP_1899 VGND VPWR sky130_fd_sc_hd__tapvpwrvgnd_1
XFILLER_13_166 VGND VGND VPWR VPWR sky130_fd_sc_hd__fill_2
XFILLER_9_137 VGND VGND VPWR VPWR sky130_ef_sc_hd__decap_12
XFILLER_186_469 VGND VGND VPWR VPWR sky130_fd_sc_hd__decap_6
XFILLER_6_811 VGND VGND VPWR VPWR sky130_fd_sc_hd__fill_1
XFILLER_139_385 VGND VGND VPWR VPWR sky130_fd_sc_hd__fill_1
Xdadda_fa_3_98_1 c$1894 c$1896 c$1898 VGND VGND VPWR VPWR c$2624 s$2625 sky130_fd_sc_hd__fa_1
Xdadda_fa_6_75_0 c$3692 c$3694 s$3697 VGND VGND VPWR VPWR c$4046 s$4047 sky130_fd_sc_hd__fa_1
XFILLER_142_539 VGND VGND VPWR VPWR sky130_fd_sc_hd__fill_1
XFILLER_174_83 VGND VGND VPWR VPWR sky130_fd_sc_hd__fill_1
XFILLER_3_23 VGND VGND VPWR VPWR sky130_fd_sc_hd__fill_2
XFILLER_3_45 VGND VGND VPWR VPWR sky130_fd_sc_hd__decap_8
XFILLER_123_797 VGND VGND VPWR VPWR sky130_fd_sc_hd__decap_6
XFILLER_7_1121 VGND VGND VPWR VPWR sky130_ef_sc_hd__decap_12
X_1270_ clknet_leaf_10_clk booth_b16_m10 VGND VGND VPWR VPWR pp_row26_8 sky130_fd_sc_hd__dfxtp_1
XFILLER_1_593 VGND VGND VPWR VPWR sky130_fd_sc_hd__fill_1
X_0221_ clknet_leaf_200_clk booth_b18_m53 VGND VGND VPWR VPWR pp_row71_6 sky130_fd_sc_hd__dfxtp_1
XFILLER_76_361 VGND VGND VPWR VPWR sky130_fd_sc_hd__decap_3
XFILLER_97_1025 VGND VGND VPWR VPWR sky130_fd_sc_hd__fill_1
XFILLER_24_409 VGND VGND VPWR VPWR sky130_fd_sc_hd__decap_3
XTAP_3780 VGND VPWR sky130_fd_sc_hd__tapvpwrvgnd_1
XFILLER_64_589 VGND VGND VPWR VPWR sky130_fd_sc_hd__decap_4
XFILLER_17_461 VGND VGND VPWR VPWR sky130_ef_sc_hd__decap_12
XTAP_3791 VGND VPWR sky130_fd_sc_hd__tapvpwrvgnd_1
XU$$370 net1724 net533 net1715 net806 VGND VGND VPWR VPWR t$4594 sky130_fd_sc_hd__a22o_1
XU$$381 t$4599 net1280 VGND VGND VPWR VPWR booth_b4_m50 sky130_fd_sc_hd__xor2_1
XU$$392 net1614 net530 net1606 net803 VGND VGND VPWR VPWR t$4605 sky130_fd_sc_hd__a22o_1
XFILLER_32_475 VGND VGND VPWR VPWR sky130_fd_sc_hd__fill_1
XFILLER_149_138 VGND VGND VPWR VPWR sky130_fd_sc_hd__decap_3
XFILLER_193_918 VGND VGND VPWR VPWR sky130_fd_sc_hd__fill_1
XFILLER_158_661 VGND VGND VPWR VPWR sky130_fd_sc_hd__fill_1
XFILLER_186_981 VGND VGND VPWR VPWR sky130_ef_sc_hd__decap_12
X_0985_ clknet_leaf_117_clk booth_b46_m54 VGND VGND VPWR VPWR pp_row100_6 sky130_fd_sc_hd__dfxtp_1
XFILLER_9_671 VGND VGND VPWR VPWR sky130_fd_sc_hd__fill_1
XFILLER_118_525 VGND VGND VPWR VPWR sky130_fd_sc_hd__decap_6
XFILLER_34_1097 VGND VGND VPWR VPWR sky130_fd_sc_hd__fill_1
XFILLER_172_141 VGND VGND VPWR VPWR sky130_ef_sc_hd__decap_12
XFILLER_146_889 VGND VGND VPWR VPWR sky130_fd_sc_hd__fill_1
Xdadda_fa_2_93_0 pp_row93_6 pp_row93_7 pp_row93_8 VGND VGND VPWR VPWR c$1842 s$1843
+ sky130_fd_sc_hd__fa_1
XFILLER_156_1119 VGND VGND VPWR VPWR sky130_fd_sc_hd__fill_2
X_1606_ clknet_leaf_240_clk booth_b10_m32 VGND VGND VPWR VPWR pp_row42_5 sky130_fd_sc_hd__dfxtp_1
XFILLER_160_336 VGND VGND VPWR VPWR sky130_fd_sc_hd__decap_8
X_1537_ clknet_leaf_7_clk booth_b18_m21 VGND VGND VPWR VPWR pp_row39_9 sky130_fd_sc_hd__dfxtp_1
XFILLER_59_306 VGND VGND VPWR VPWR sky130_fd_sc_hd__fill_1
XFILLER_141_561 VGND VGND VPWR VPWR sky130_fd_sc_hd__decap_4
XFILLER_113_274 VGND VGND VPWR VPWR sky130_fd_sc_hd__decap_6
X_1468_ clknet_leaf_40_clk booth_b20_m16 VGND VGND VPWR VPWR pp_row36_10 sky130_fd_sc_hd__dfxtp_1
Xdadda_fa_1_62_6 c$52 c$54 c$56 VGND VGND VPWR VPWR c$576 s$577 sky130_fd_sc_hd__fa_1
XFILLER_74_309 VGND VGND VPWR VPWR sky130_ef_sc_hd__decap_12
XFILLER_86_169 VGND VGND VPWR VPWR sky130_fd_sc_hd__fill_1
X_0419_ clknet_leaf_145_clk booth_b26_m51 VGND VGND VPWR VPWR pp_row77_7 sky130_fd_sc_hd__dfxtp_1
X_1399_ clknet_leaf_54_clk booth_b8_m25 VGND VGND VPWR VPWR pp_row33_4 sky130_fd_sc_hd__dfxtp_1
Xdadda_fa_1_55_5 pp_row55_20 pp_row55_21 pp_row55_22 VGND VGND VPWR VPWR c$448 s$449
+ sky130_fd_sc_hd__fa_1
XFILLER_55_523 VGND VGND VPWR VPWR sky130_fd_sc_hd__fill_2
XFILLER_27_225 VGND VGND VPWR VPWR sky130_ef_sc_hd__decap_12
Xdadda_fa_1_48_4 pp_row48_12 pp_row48_13 pp_row48_14 VGND VGND VPWR VPWR c$324 s$325
+ sky130_fd_sc_hd__fa_1
XFILLER_27_258 VGND VGND VPWR VPWR sky130_fd_sc_hd__decap_6
XFILLER_103_57 VGND VGND VPWR VPWR sky130_fd_sc_hd__decap_3
XTAP_1107 VGND VPWR sky130_fd_sc_hd__tapvpwrvgnd_1
XFILLER_43_729 VGND VGND VPWR VPWR sky130_ef_sc_hd__decap_12
XTAP_1118 VGND VPWR sky130_fd_sc_hd__tapvpwrvgnd_1
XTAP_1129 VGND VPWR sky130_fd_sc_hd__tapvpwrvgnd_1
Xdadda_fa_4_18_2 s$1987 s$1989 s$1991 VGND VGND VPWR VPWR c$2802 s$2803 sky130_fd_sc_hd__fa_1
XFILLER_179_39 VGND VGND VPWR VPWR sky130_ef_sc_hd__decap_12
XFILLER_51_773 VGND VGND VPWR VPWR sky130_fd_sc_hd__decap_8
XFILLER_50_283 VGND VGND VPWR VPWR sky130_fd_sc_hd__decap_4
Xdadda_fa_7_92_0 s$3767 c$4078 s$4081 VGND VGND VPWR VPWR c$4336 s$4337 sky130_fd_sc_hd__fa_1
XFILLER_163_130 VGND VGND VPWR VPWR sky130_ef_sc_hd__decap_12
XFILLER_12_65 VGND VGND VPWR VPWR sky130_ef_sc_hd__decap_12
XFILLER_192_973 VGND VGND VPWR VPWR sky130_fd_sc_hd__decap_6
XFILLER_137_878 VGND VGND VPWR VPWR sky130_fd_sc_hd__decap_6
XFILLER_191_461 VGND VGND VPWR VPWR sky130_ef_sc_hd__decap_12
XFILLER_128_65 VGND VGND VPWR VPWR sky130_ef_sc_hd__decap_12
XFILLER_163_185 VGND VGND VPWR VPWR sky130_fd_sc_hd__fill_1
XFILLER_3_836 VGND VGND VPWR VPWR sky130_fd_sc_hd__decap_4
XFILLER_120_701 VGND VGND VPWR VPWR sky130_fd_sc_hd__fill_2
Xfanout1604 net1606 VGND VGND VPWR VPWR net1604 sky130_fd_sc_hd__buf_4
XFILLER_77_103 VGND VGND VPWR VPWR sky130_fd_sc_hd__fill_1
Xfanout1615 net1619 VGND VGND VPWR VPWR net1615 sky130_fd_sc_hd__buf_4
Xfanout1626 net1627 VGND VGND VPWR VPWR net1626 sky130_fd_sc_hd__buf_4
Xfanout1637 net113 VGND VGND VPWR VPWR net1637 sky130_fd_sc_hd__buf_4
Xfanout650 sel_0$4967 VGND VGND VPWR VPWR net650 sky130_fd_sc_hd__buf_6
Xfanout1648 net111 VGND VGND VPWR VPWR net1648 sky130_fd_sc_hd__buf_6
XFILLER_77_147 VGND VGND VPWR VPWR sky130_fd_sc_hd__fill_1
XFILLER_144_75 VGND VGND VPWR VPWR sky130_fd_sc_hd__decap_8
Xfanout661 net666 VGND VGND VPWR VPWR net661 sky130_fd_sc_hd__buf_4
XU$$4107 net1529 net453 net1804 net726 VGND VGND VPWR VPWR t$6503 sky130_fd_sc_hd__a22o_1
Xfanout1659 net1661 VGND VGND VPWR VPWR net1659 sky130_fd_sc_hd__clkbuf_8
XU$$4118 net1229 net434 net1125 net716 VGND VGND VPWR VPWR t$6510 sky130_fd_sc_hd__a22o_1
Xfanout672 net673 VGND VGND VPWR VPWR net672 sky130_fd_sc_hd__buf_4
XU$$4129 t$6515 net1269 VGND VGND VPWR VPWR booth_b60_m6 sky130_fd_sc_hd__xor2_1
Xfanout683 sel_1$4688 VGND VGND VPWR VPWR net683 sky130_fd_sc_hd__buf_6
XFILLER_120_789 VGND VGND VPWR VPWR sky130_fd_sc_hd__decap_3
Xfanout694 net695 VGND VGND VPWR VPWR net694 sky130_fd_sc_hd__buf_4
XFILLER_19_726 VGND VGND VPWR VPWR sky130_fd_sc_hd__fill_2
XFILLER_58_361 VGND VGND VPWR VPWR sky130_fd_sc_hd__decap_3
XU$$3406 net1618 net498 net1609 net771 VGND VGND VPWR VPWR t$6145 sky130_fd_sc_hd__a22o_1
XFILLER_58_372 VGND VGND VPWR VPWR sky130_ef_sc_hd__decap_12
XTAP_3010 VGND VPWR sky130_fd_sc_hd__tapvpwrvgnd_1
XU$$3417 t$6150 net1345 VGND VGND VPWR VPWR booth_b48_m61 sky130_fd_sc_hd__xor2_1
XFILLER_92_139 VGND VGND VPWR VPWR sky130_fd_sc_hd__fill_1
XU$$3428 net1330 notblock$6155\[1\] VGND VGND VPWR VPWR t$6156 sky130_fd_sc_hd__and2_1
XTAP_3021 VGND VPWR sky130_fd_sc_hd__tapvpwrvgnd_1
XU$$3439 net938 net488 net1677 net761 VGND VGND VPWR VPWR t$6163 sky130_fd_sc_hd__a22o_1
XFILLER_46_545 VGND VGND VPWR VPWR sky130_ef_sc_hd__decap_12
XFILLER_74_854 VGND VGND VPWR VPWR sky130_ef_sc_hd__decap_12
XTAP_3032 VGND VPWR sky130_fd_sc_hd__tapvpwrvgnd_1
XFILLER_160_41 VGND VGND VPWR VPWR sky130_fd_sc_hd__decap_6
XU$$2705 net1696 net545 net1688 net818 VGND VGND VPWR VPWR t$5787 sky130_fd_sc_hd__a22o_1
XTAP_3043 VGND VPWR sky130_fd_sc_hd__tapvpwrvgnd_1
XTAP_3054 VGND VPWR sky130_fd_sc_hd__tapvpwrvgnd_1
XTAP_2320 VGND VPWR sky130_fd_sc_hd__tapvpwrvgnd_1
XU$$2716 t$5792 net1401 VGND VGND VPWR VPWR booth_b38_m53 sky130_fd_sc_hd__xor2_1
XU$$2727 net1592 net548 net1584 net821 VGND VGND VPWR VPWR t$5798 sky130_fd_sc_hd__a22o_1
XFILLER_160_63 VGND VGND VPWR VPWR sky130_ef_sc_hd__decap_12
XFILLER_18_269 VGND VGND VPWR VPWR sky130_fd_sc_hd__fill_1
XTAP_3065 VGND VPWR sky130_fd_sc_hd__tapvpwrvgnd_1
XU$$2738 t$5803 net1401 VGND VGND VPWR VPWR booth_b38_m64 sky130_fd_sc_hd__xor2_1
XFILLER_46_589 VGND VGND VPWR VPWR sky130_ef_sc_hd__decap_12
XFILLER_73_375 VGND VGND VPWR VPWR sky130_fd_sc_hd__fill_1
XTAP_2331 VGND VPWR sky130_fd_sc_hd__tapvpwrvgnd_1
XTAP_3076 VGND VPWR sky130_fd_sc_hd__tapvpwrvgnd_1
XU$$2749 t$5810 net1376 VGND VGND VPWR VPWR booth_b40_m1 sky130_fd_sc_hd__xor2_1
XFILLER_61_526 VGND VGND VPWR VPWR sky130_ef_sc_hd__decap_12
XTAP_2342 VGND VPWR sky130_fd_sc_hd__tapvpwrvgnd_1
XTAP_3087 VGND VPWR sky130_fd_sc_hd__tapvpwrvgnd_1
XTAP_2353 VGND VPWR sky130_fd_sc_hd__tapvpwrvgnd_1
Xdadda_fa_3_20_2 pp_row20_6 pp_row20_7 pp_row20_8 VGND VGND VPWR VPWR c$2002 s$2003
+ sky130_fd_sc_hd__fa_1
XTAP_3098 VGND VPWR sky130_fd_sc_hd__tapvpwrvgnd_1
XTAP_2364 VGND VPWR sky130_fd_sc_hd__tapvpwrvgnd_1
XTAP_1630 VGND VPWR sky130_fd_sc_hd__tapvpwrvgnd_1
XTAP_2375 VGND VPWR sky130_fd_sc_hd__tapvpwrvgnd_1
XTAP_1641 VGND VPWR sky130_fd_sc_hd__tapvpwrvgnd_1
XTAP_2386 VGND VPWR sky130_fd_sc_hd__tapvpwrvgnd_1
XFILLER_42_751 VGND VGND VPWR VPWR sky130_fd_sc_hd__decap_4
XTAP_1652 VGND VPWR sky130_fd_sc_hd__tapvpwrvgnd_1
XTAP_2397 VGND VPWR sky130_fd_sc_hd__tapvpwrvgnd_1
XTAP_1663 VGND VPWR sky130_fd_sc_hd__tapvpwrvgnd_1
XFILLER_15_987 VGND VGND VPWR VPWR sky130_ef_sc_hd__decap_12
XFILLER_42_773 VGND VGND VPWR VPWR sky130_ef_sc_hd__decap_12
XTAP_1674 VGND VPWR sky130_fd_sc_hd__tapvpwrvgnd_1
XFILLER_18_1037 VGND VGND VPWR VPWR sky130_fd_sc_hd__fill_2
XFILLER_57_1086 VGND VGND VPWR VPWR sky130_fd_sc_hd__decap_4
XTAP_1685 VGND VPWR sky130_fd_sc_hd__tapvpwrvgnd_1
XFILLER_14_475 VGND VGND VPWR VPWR sky130_fd_sc_hd__fill_1
XTAP_1696 VGND VPWR sky130_fd_sc_hd__tapvpwrvgnd_1
XFILLER_186_233 VGND VGND VPWR VPWR sky130_ef_sc_hd__decap_12
XFILLER_42_795 VGND VGND VPWR VPWR sky130_ef_sc_hd__decap_12
XFILLER_144_1056 VGND VGND VPWR VPWR sky130_fd_sc_hd__fill_1
XFILLER_175_929 VGND VGND VPWR VPWR sky130_ef_sc_hd__decap_12
XFILLER_144_1089 VGND VGND VPWR VPWR sky130_fd_sc_hd__decap_3
XFILLER_186_277 VGND VGND VPWR VPWR sky130_ef_sc_hd__decap_12
XFILLER_174_417 VGND VGND VPWR VPWR sky130_fd_sc_hd__decap_3
XFILLER_168_981 VGND VGND VPWR VPWR sky130_fd_sc_hd__decap_8
X_0770_ clknet_leaf_138_clk booth_b28_m62 VGND VGND VPWR VPWR pp_row90_2 sky130_fd_sc_hd__dfxtp_1
XFILLER_183_951 VGND VGND VPWR VPWR sky130_fd_sc_hd__fill_1
XFILLER_127_344 VGND VGND VPWR VPWR sky130_fd_sc_hd__decap_8
XFILLER_154_141 VGND VGND VPWR VPWR sky130_fd_sc_hd__decap_8
XFILLER_143_815 VGND VGND VPWR VPWR sky130_fd_sc_hd__fill_2
XFILLER_170_623 VGND VGND VPWR VPWR sky130_fd_sc_hd__decap_3
XFILLER_185_93 VGND VGND VPWR VPWR sky130_ef_sc_hd__decap_12
X_2440_ clknet_leaf_75_clk booth_b58_m9 VGND VGND VPWR VPWR pp_row67_29 sky130_fd_sc_hd__dfxtp_1
XFILLER_170_645 VGND VGND VPWR VPWR sky130_fd_sc_hd__fill_2
XFILLER_69_615 VGND VGND VPWR VPWR sky130_fd_sc_hd__fill_1
X_2371_ clknet_leaf_85_clk booth_b2_m64 VGND VGND VPWR VPWR pp_row66_1 sky130_fd_sc_hd__dfxtp_1
Xdadda_fa_2_72_5 s$755 s$757 s$759 VGND VGND VPWR VPWR c$1600 s$1601 sky130_fd_sc_hd__fa_2
XFILLER_97_935 VGND VGND VPWR VPWR sky130_fd_sc_hd__decap_8
X_1322_ clknet_leaf_0_clk booth_b12_m17 VGND VGND VPWR VPWR pp_row29_6 sky130_fd_sc_hd__dfxtp_1
XFILLER_69_648 VGND VGND VPWR VPWR sky130_fd_sc_hd__decap_4
Xdadda_fa_2_65_4 s$623 s$625 s$627 VGND VGND VPWR VPWR c$1514 s$1515 sky130_fd_sc_hd__fa_2
XFILLER_111_745 VGND VGND VPWR VPWR sky130_fd_sc_hd__fill_2
XFILLER_116_1147 VGND VGND VPWR VPWR sky130_fd_sc_hd__fill_1
XFILLER_1_390 VGND VGND VPWR VPWR sky130_fd_sc_hd__fill_2
X_1253_ clknet_leaf_10_clk booth_b12_m13 VGND VGND VPWR VPWR pp_row25_6 sky130_fd_sc_hd__dfxtp_1
XFILLER_56_309 VGND VGND VPWR VPWR sky130_fd_sc_hd__fill_2
XFILLER_83_106 VGND VGND VPWR VPWR sky130_fd_sc_hd__decap_6
XFILLER_96_489 VGND VGND VPWR VPWR sky130_ef_sc_hd__decap_12
Xdadda_fa_2_58_3 c$490 s$493 s$495 VGND VGND VPWR VPWR c$1428 s$1429 sky130_fd_sc_hd__fa_1
XFILLER_110_277 VGND VGND VPWR VPWR sky130_fd_sc_hd__decap_6
X_0204_ clknet_leaf_152_clk booth_b48_m22 VGND VGND VPWR VPWR pp_row70_22 sky130_fd_sc_hd__dfxtp_1
X_1184_ clknet_leaf_53_clk booth_b20_m0 VGND VGND VPWR VPWR pp_row20_10 sky130_fd_sc_hd__dfxtp_1
XFILLER_37_545 VGND VGND VPWR VPWR sky130_fd_sc_hd__fill_1
XFILLER_92_640 VGND VGND VPWR VPWR sky130_fd_sc_hd__decap_4
XU$$3940 net1693 net466 net1684 net739 VGND VGND VPWR VPWR t$6418 sky130_fd_sc_hd__a22o_1
Xdadda_fa_5_28_1 s$2859 s$2861 s$2863 VGND VGND VPWR VPWR c$3510 s$3511 sky130_fd_sc_hd__fa_1
XU$$3951 t$6423 net1297 VGND VGND VPWR VPWR booth_b56_m54 sky130_fd_sc_hd__xor2_1
XU$$3962 net1584 net465 net1557 net738 VGND VGND VPWR VPWR t$6429 sky130_fd_sc_hd__a22o_1
XU$$3973 net1292 VGND VGND VPWR VPWR notblock$6435\[0\] sky130_fd_sc_hd__inv_1
XU$$3984 t$6441 net1282 VGND VGND VPWR VPWR booth_b58_m2 sky130_fd_sc_hd__xor2_1
XU$$3995 net1517 net455 net1510 net728 VGND VGND VPWR VPWR t$6447 sky130_fd_sc_hd__a22o_1
XFILLER_91_194 VGND VGND VPWR VPWR sky130_ef_sc_hd__decap_12
XFILLER_178_767 VGND VGND VPWR VPWR sky130_fd_sc_hd__fill_1
XFILLER_118_300 VGND VGND VPWR VPWR sky130_fd_sc_hd__decap_8
X_0968_ clknet_leaf_116_clk booth_b46_m53 VGND VGND VPWR VPWR pp_row99_6 sky130_fd_sc_hd__dfxtp_1
XFILLER_118_355 VGND VGND VPWR VPWR sky130_fd_sc_hd__fill_2
Xdadda_fa_5_102_1 s$3303 s$3305 s$3307 VGND VGND VPWR VPWR c$3806 s$3807 sky130_fd_sc_hd__fa_1
XFILLER_118_377 VGND VGND VPWR VPWR sky130_fd_sc_hd__decap_4
X_0899_ clknet_leaf_130_clk booth_b62_m58 VGND VGND VPWR VPWR pp_row120_4 sky130_fd_sc_hd__dfxtp_1
XFILLER_160_111 VGND VGND VPWR VPWR sky130_fd_sc_hd__decap_8
Xoutput264 net264 VGND VGND VPWR VPWR o[106] sky130_fd_sc_hd__buf_2
XFILLER_161_689 VGND VGND VPWR VPWR sky130_fd_sc_hd__fill_1
XFILLER_102_701 VGND VGND VPWR VPWR sky130_ef_sc_hd__decap_12
Xoutput275 net275 VGND VGND VPWR VPWR o[116] sky130_fd_sc_hd__buf_2
XFILLER_0_828 VGND VGND VPWR VPWR sky130_fd_sc_hd__decap_6
Xoutput286 net286 VGND VGND VPWR VPWR o[126] sky130_fd_sc_hd__buf_2
Xoutput297 net297 VGND VGND VPWR VPWR o[20] sky130_fd_sc_hd__buf_2
XFILLER_59_125 VGND VGND VPWR VPWR sky130_ef_sc_hd__decap_12
Xdadda_fa_1_60_3 pp_row60_23 pp_row60_24 pp_row60_25 VGND VGND VPWR VPWR c$534 s$535
+ sky130_fd_sc_hd__fa_1
XFILLER_28_501 VGND VGND VPWR VPWR sky130_fd_sc_hd__fill_1
Xdadda_fa_1_53_2 pp_row53_8 pp_row53_9 pp_row53_10 VGND VGND VPWR VPWR c$406 s$407
+ sky130_fd_sc_hd__fa_1
XFILLER_74_27 VGND VGND VPWR VPWR sky130_fd_sc_hd__fill_1
Xdadda_fa_4_30_1 c$2074 c$2076 s$2079 VGND VGND VPWR VPWR c$2872 s$2873 sky130_fd_sc_hd__fa_1
Xdadda_fa_1_46_1 pp_row46_3 pp_row46_4 pp_row46_5 VGND VGND VPWR VPWR c$290 s$291
+ sky130_fd_sc_hd__fa_2
XFILLER_28_589 VGND VGND VPWR VPWR sky130_fd_sc_hd__decap_6
XFILLER_56_898 VGND VGND VPWR VPWR sky130_fd_sc_hd__decap_8
Xdadda_fa_4_23_0 s$1053 c$2014 c$2016 VGND VGND VPWR VPWR c$2828 s$2829 sky130_fd_sc_hd__fa_1
Xdadda_fa_1_39_0 pp_row39_0 pp_row39_1 pp_row39_2 VGND VGND VPWR VPWR c$222 s$223
+ sky130_fd_sc_hd__fa_1
XFILLER_70_334 VGND VGND VPWR VPWR sky130_fd_sc_hd__fill_1
XFILLER_90_15 VGND VGND VPWR VPWR sky130_ef_sc_hd__decap_12
XFILLER_30_209 VGND VGND VPWR VPWR sky130_ef_sc_hd__decap_12
XFILLER_169_745 VGND VGND VPWR VPWR sky130_fd_sc_hd__fill_2