* NGSPICE file created from multiply_add_64x64.ext - technology: sky130B

* Black-box entry subcircuit for sky130_fd_sc_hd__fill_2 abstract view
.subckt sky130_fd_sc_hd__fill_2 VGND VNB VPB VPWR
.ends

* Black-box entry subcircuit for sky130_fd_sc_hd__fa_2 abstract view
.subckt sky130_fd_sc_hd__fa_2 A B CIN VGND VNB VPB VPWR COUT SUM
.ends

* Black-box entry subcircuit for sky130_fd_sc_hd__fill_1 abstract view
.subckt sky130_fd_sc_hd__fill_1 VGND VNB VPB VPWR
.ends

* Black-box entry subcircuit for sky130_fd_sc_hd__decap_4 abstract view
.subckt sky130_fd_sc_hd__decap_4 VGND VNB VPB VPWR
.ends

* Black-box entry subcircuit for sky130_ef_sc_hd__decap_12 abstract view
.subckt sky130_ef_sc_hd__decap_12 VGND VNB VPB VPWR
.ends

* Black-box entry subcircuit for sky130_fd_sc_hd__fa_1 abstract view
.subckt sky130_fd_sc_hd__fa_1 A B CIN VGND VNB VPB VPWR COUT SUM
.ends

* Black-box entry subcircuit for sky130_fd_sc_hd__decap_3 abstract view
.subckt sky130_fd_sc_hd__decap_3 VGND VNB VPB VPWR
.ends

* Black-box entry subcircuit for sky130_fd_sc_hd__decap_6 abstract view
.subckt sky130_fd_sc_hd__decap_6 VGND VNB VPB VPWR
.ends

* Black-box entry subcircuit for sky130_fd_sc_hd__xor2_1 abstract view
.subckt sky130_fd_sc_hd__xor2_1 A B VGND VNB VPB VPWR X
.ends

* Black-box entry subcircuit for sky130_fd_sc_hd__decap_8 abstract view
.subckt sky130_fd_sc_hd__decap_8 VGND VNB VPB VPWR
.ends

* Black-box entry subcircuit for sky130_fd_sc_hd__conb_1 abstract view
.subckt sky130_fd_sc_hd__conb_1 VGND VNB VPB VPWR HI LO
.ends

* Black-box entry subcircuit for sky130_fd_sc_hd__clkbuf_16 abstract view
.subckt sky130_fd_sc_hd__clkbuf_16 A VGND VNB VPB VPWR X
.ends

* Black-box entry subcircuit for sky130_fd_sc_hd__clkbuf_8 abstract view
.subckt sky130_fd_sc_hd__clkbuf_8 A VGND VNB VPB VPWR X
.ends

* Black-box entry subcircuit for sky130_fd_sc_hd__buf_6 abstract view
.subckt sky130_fd_sc_hd__buf_6 A VGND VNB VPB VPWR X
.ends

* Black-box entry subcircuit for sky130_fd_sc_hd__buf_4 abstract view
.subckt sky130_fd_sc_hd__buf_4 A VGND VNB VPB VPWR X
.ends

* Black-box entry subcircuit for sky130_fd_sc_hd__clkbuf_4 abstract view
.subckt sky130_fd_sc_hd__clkbuf_4 A VGND VNB VPB VPWR X
.ends

* Black-box entry subcircuit for sky130_fd_sc_hd__tapvpwrvgnd_1 abstract view
.subckt sky130_fd_sc_hd__tapvpwrvgnd_1 VGND VPWR
.ends

* Black-box entry subcircuit for sky130_fd_sc_hd__a22o_1 abstract view
.subckt sky130_fd_sc_hd__a22o_1 A1 A2 B1 B2 VGND VNB VPB VPWR X
.ends

* Black-box entry subcircuit for sky130_fd_sc_hd__diode_2 abstract view
.subckt sky130_fd_sc_hd__diode_2 DIODE VGND VNB VPB VPWR
.ends

* Black-box entry subcircuit for sky130_fd_sc_hd__ha_1 abstract view
.subckt sky130_fd_sc_hd__ha_1 A B VGND VNB VPB VPWR COUT SUM
.ends

* Black-box entry subcircuit for sky130_fd_sc_hd__dfxtp_1 abstract view
.subckt sky130_fd_sc_hd__dfxtp_1 CLK D VGND VNB VPB VPWR Q
.ends

* Black-box entry subcircuit for sky130_fd_sc_hd__and2_1 abstract view
.subckt sky130_fd_sc_hd__and2_1 A B VGND VNB VPB VPWR X
.ends

* Black-box entry subcircuit for sky130_fd_sc_hd__inv_1 abstract view
.subckt sky130_fd_sc_hd__inv_1 A VGND VNB VPB VPWR Y
.ends

* Black-box entry subcircuit for sky130_fd_sc_hd__buf_2 abstract view
.subckt sky130_fd_sc_hd__buf_2 A VGND VNB VPB VPWR X
.ends

* Black-box entry subcircuit for sky130_fd_sc_hd__buf_8 abstract view
.subckt sky130_fd_sc_hd__buf_8 A VGND VNB VPB VPWR X
.ends

* Black-box entry subcircuit for sky130_fd_sc_hd__a21o_1 abstract view
.subckt sky130_fd_sc_hd__a21o_1 A1 A2 B1 VGND VNB VPB VPWR X
.ends

* Black-box entry subcircuit for sky130_fd_sc_hd__a21o_2 abstract view
.subckt sky130_fd_sc_hd__a21o_2 A1 A2 B1 VGND VNB VPB VPWR X
.ends

* Black-box entry subcircuit for sky130_fd_sc_hd__clkbuf_2 abstract view
.subckt sky130_fd_sc_hd__clkbuf_2 A VGND VNB VPB VPWR X
.ends

* Black-box entry subcircuit for sky130_fd_sc_hd__clkbuf_1 abstract view
.subckt sky130_fd_sc_hd__clkbuf_1 A VGND VNB VPB VPWR X
.ends

* Black-box entry subcircuit for sky130_fd_sc_hd__a32o_2 abstract view
.subckt sky130_fd_sc_hd__a32o_2 A1 A2 A3 B1 B2 VGND VNB VPB VPWR X
.ends

* Black-box entry subcircuit for sky130_fd_sc_hd__dfxtp_2 abstract view
.subckt sky130_fd_sc_hd__dfxtp_2 CLK D VGND VNB VPB VPWR Q
.ends

* Black-box entry subcircuit for sky130_fd_sc_hd__a32o_4 abstract view
.subckt sky130_fd_sc_hd__a32o_4 A1 A2 A3 B1 B2 VGND VNB VPB VPWR X
.ends

* Black-box entry subcircuit for sky130_fd_sc_hd__dlymetal6s2s_1 abstract view
.subckt sky130_fd_sc_hd__dlymetal6s2s_1 A VGND VNB VPB VPWR X
.ends

* Black-box entry subcircuit for sky130_fd_sc_hd__a22o_2 abstract view
.subckt sky130_fd_sc_hd__a22o_2 A1 A2 B1 B2 VGND VNB VPB VPWR X
.ends

* Black-box entry subcircuit for sky130_fd_sc_hd__a22o_4 abstract view
.subckt sky130_fd_sc_hd__a22o_4 A1 A2 B1 B2 VGND VNB VPB VPWR X
.ends

* Black-box entry subcircuit for sky130_fd_sc_hd__ha_2 abstract view
.subckt sky130_fd_sc_hd__ha_2 A B VGND VNB VPB VPWR COUT SUM
.ends

* Black-box entry subcircuit for sky130_fd_sc_hd__a32o_1 abstract view
.subckt sky130_fd_sc_hd__a32o_1 A1 A2 A3 B1 B2 VGND VNB VPB VPWR X
.ends

* Black-box entry subcircuit for sky130_fd_sc_hd__a21o_4 abstract view
.subckt sky130_fd_sc_hd__a21o_4 A1 A2 B1 VGND VNB VPB VPWR X
.ends

* Black-box entry subcircuit for sky130_fd_sc_hd__xor2_2 abstract view
.subckt sky130_fd_sc_hd__xor2_2 A B VGND VNB VPB VPWR X
.ends

* Black-box entry subcircuit for sky130_fd_sc_hd__ha_4 abstract view
.subckt sky130_fd_sc_hd__ha_4 A B VGND VNB VPB VPWR COUT SUM
.ends

* Black-box entry subcircuit for sky130_fd_sc_hd__buf_12 abstract view
.subckt sky130_fd_sc_hd__buf_12 A VGND VNB VPB VPWR X
.ends

* Black-box entry subcircuit for sky130_fd_sc_hd__xor2_4 abstract view
.subckt sky130_fd_sc_hd__xor2_4 A B VGND VNB VPB VPWR X
.ends

.subckt multiply_add_64x64 VGND VPWR a[0] a[10] a[11] a[12] a[13] a[14] a[15] a[16]
+ a[17] a[18] a[19] a[1] a[20] a[21] a[22] a[23] a[24] a[25] a[26] a[27] a[28] a[29]
+ a[2] a[30] a[31] a[32] a[33] a[34] a[35] a[36] a[37] a[38] a[39] a[3] a[40] a[41]
+ a[42] a[43] a[44] a[45] a[46] a[47] a[48] a[49] a[4] a[50] a[51] a[52] a[53] a[54]
+ a[55] a[56] a[57] a[58] a[59] a[5] a[60] a[61] a[62] a[63] a[6] a[7] a[8] a[9] b[0]
+ b[10] b[11] b[12] b[13] b[14] b[15] b[16] b[17] b[18] b[19] b[1] b[20] b[21] b[22]
+ b[23] b[24] b[25] b[26] b[27] b[28] b[29] b[2] b[30] b[31] b[32] b[33] b[34] b[35]
+ b[36] b[37] b[38] b[39] b[3] b[40] b[41] b[42] b[43] b[44] b[45] b[46] b[47] b[48]
+ b[49] b[4] b[50] b[51] b[52] b[53] b[54] b[55] b[56] b[57] b[58] b[59] b[5] b[60]
+ b[61] b[62] b[63] b[6] b[7] b[8] b[9] c[0] c[100] c[101] c[102] c[103] c[104] c[105]
+ c[106] c[107] c[108] c[109] c[10] c[110] c[111] c[112] c[113] c[114] c[115] c[116]
+ c[117] c[118] c[119] c[11] c[120] c[121] c[122] c[123] c[124] c[125] c[126] c[127]
+ c[12] c[13] c[14] c[15] c[16] c[17] c[18] c[19] c[1] c[20] c[21] c[22] c[23] c[24]
+ c[25] c[26] c[27] c[28] c[29] c[2] c[30] c[31] c[32] c[33] c[34] c[35] c[36] c[37]
+ c[38] c[39] c[3] c[40] c[41] c[42] c[43] c[44] c[45] c[46] c[47] c[48] c[49] c[4]
+ c[50] c[51] c[52] c[53] c[54] c[55] c[56] c[57] c[58] c[59] c[5] c[60] c[61] c[62]
+ c[63] c[64] c[65] c[66] c[67] c[68] c[69] c[6] c[70] c[71] c[72] c[73] c[74] c[75]
+ c[76] c[77] c[78] c[79] c[7] c[80] c[81] c[82] c[83] c[84] c[85] c[86] c[87] c[88]
+ c[89] c[8] c[90] c[91] c[92] c[93] c[94] c[95] c[96] c[97] c[98] c[99] c[9] clk
+ o[0] o[100] o[101] o[102] o[103] o[104] o[105] o[106] o[107] o[108] o[109] o[10]
+ o[110] o[111] o[112] o[113] o[114] o[115] o[116] o[117] o[118] o[119] o[11] o[120]
+ o[121] o[122] o[123] o[124] o[125] o[126] o[127] o[12] o[13] o[14] o[15] o[16] o[17]
+ o[18] o[19] o[1] o[20] o[21] o[22] o[23] o[24] o[25] o[26] o[27] o[28] o[29] o[2]
+ o[30] o[31] o[32] o[33] o[34] o[35] o[36] o[37] o[38] o[39] o[3] o[40] o[41] o[42]
+ o[43] o[44] o[45] o[46] o[47] o[48] o[49] o[4] o[50] o[51] o[52] o[53] o[54] o[55]
+ o[56] o[57] o[58] o[59] o[5] o[60] o[61] o[62] o[63] o[64] o[65] o[66] o[67] o[68]
+ o[69] o[6] o[70] o[71] o[72] o[73] o[74] o[75] o[76] o[77] o[78] o[79] o[7] o[80]
+ o[81] o[82] o[83] o[84] o[85] o[86] o[87] o[88] o[89] o[8] o[90] o[91] o[92] o[93]
+ o[94] o[95] o[96] o[97] o[98] o[99] o[9] rst
XFILLER_39_233 VGND VGND VPWR VPWR sky130_fd_sc_hd__fill_2
Xdadda_fa_1_57_8 dadda_fa_1_57_8/A dadda_fa_1_57_8/B dadda_fa_1_57_8/CIN VGND VGND
+ VPWR VPWR dadda_fa_2_58_3/A dadda_fa_3_57_0/A sky130_fd_sc_hd__fa_2
XFILLER_94_383 VGND VGND VPWR VPWR sky130_fd_sc_hd__fill_1
XFILLER_36_962 VGND VGND VPWR VPWR sky130_fd_sc_hd__fill_2
XFILLER_82_589 VGND VGND VPWR VPWR sky130_fd_sc_hd__decap_4
XFILLER_51_921 VGND VGND VPWR VPWR sky130_ef_sc_hd__decap_12
Xdadda_fa_2_104_0 dadda_fa_2_104_0/A U$$2875/X U$$3008/X VGND VGND VPWR VPWR dadda_fa_3_105_2/CIN
+ dadda_fa_3_104_3/B sky130_fd_sc_hd__fa_1
XFILLER_74_1025 VGND VGND VPWR VPWR sky130_fd_sc_hd__decap_3
XFILLER_51_965 VGND VGND VPWR VPWR sky130_ef_sc_hd__decap_12
XFILLER_52_29 VGND VGND VPWR VPWR sky130_ef_sc_hd__decap_12
XFILLER_74_1058 VGND VGND VPWR VPWR sky130_fd_sc_hd__fill_1
XFILLER_168_29 VGND VGND VPWR VPWR sky130_fd_sc_hd__decap_6
XU$$1290 U$$1290/A U$$1294/B VGND VGND VPWR VPWR U$$1290/X sky130_fd_sc_hd__xor2_1
XFILLER_167_149 VGND VGND VPWR VPWR sky130_fd_sc_hd__fill_1
XFILLER_50_497 VGND VGND VPWR VPWR sky130_fd_sc_hd__decap_8
XFILLER_148_341 VGND VGND VPWR VPWR sky130_fd_sc_hd__decap_6
XFILLER_164_801 VGND VGND VPWR VPWR sky130_fd_sc_hd__decap_8
XFILLER_11_1031 VGND VGND VPWR VPWR sky130_fd_sc_hd__fill_1
XFILLER_151_517 VGND VGND VPWR VPWR sky130_ef_sc_hd__decap_12
XFILLER_2_505 VGND VGND VPWR VPWR sky130_fd_sc_hd__fill_2
Xdadda_fa_1_90_2 U$$2581/X U$$2714/X U$$2847/X VGND VGND VPWR VPWR dadda_fa_2_91_4/CIN
+ dadda_fa_2_90_5/CIN sky130_fd_sc_hd__fa_1
XFILLER_163_388 VGND VGND VPWR VPWR sky130_fd_sc_hd__decap_4
XU$$4513_1904 VGND VGND VPWR VPWR U$$4513_1904/HI U$$4513/B sky130_fd_sc_hd__conb_1
Xdadda_fa_1_83_1 U$$1769/X U$$1902/X U$$2035/X VGND VGND VPWR VPWR dadda_fa_2_84_2/A
+ dadda_fa_2_83_4/B sky130_fd_sc_hd__fa_1
XFILLER_104_433 VGND VGND VPWR VPWR sky130_ef_sc_hd__decap_12
XFILLER_77_15 VGND VGND VPWR VPWR sky130_ef_sc_hd__decap_12
XFILLER_78_807 VGND VGND VPWR VPWR sky130_fd_sc_hd__decap_4
Xdadda_fa_4_60_0 dadda_fa_4_60_0/A dadda_fa_4_60_0/B dadda_fa_4_60_0/CIN VGND VGND
+ VPWR VPWR dadda_fa_5_61_0/A dadda_fa_5_60_1/A sky130_fd_sc_hd__fa_1
Xfanout820 U$$2471/X VGND VGND VPWR VPWR fanout820/X sky130_fd_sc_hd__clkbuf_16
XFILLER_132_775 VGND VGND VPWR VPWR sky130_ef_sc_hd__decap_12
XFILLER_77_317 VGND VGND VPWR VPWR sky130_ef_sc_hd__decap_12
XFILLER_104_477 VGND VGND VPWR VPWR sky130_fd_sc_hd__decap_8
Xdadda_fa_1_76_0 U$$1489/X U$$1622/X U$$1755/X VGND VGND VPWR VPWR dadda_fa_2_77_0/B
+ dadda_fa_2_76_3/B sky130_fd_sc_hd__fa_1
Xfanout831 U$$2282/B2 VGND VGND VPWR VPWR U$$2252/B2 sky130_fd_sc_hd__clkbuf_8
XFILLER_120_937 VGND VGND VPWR VPWR sky130_fd_sc_hd__decap_4
Xfanout842 U$$2181/B2 VGND VGND VPWR VPWR U$$2189/B2 sky130_fd_sc_hd__buf_6
Xfanout853 U$$1859/B2 VGND VGND VPWR VPWR U$$1829/B2 sky130_fd_sc_hd__buf_4
XFILLER_131_285 VGND VGND VPWR VPWR sky130_fd_sc_hd__fill_1
Xfanout864 U$$1760/B2 VGND VGND VPWR VPWR U$$1726/B2 sky130_fd_sc_hd__clkbuf_4
XFILLER_58_531 VGND VGND VPWR VPWR sky130_fd_sc_hd__fill_1
Xfanout875 U$$1621/B2 VGND VGND VPWR VPWR U$$1587/B2 sky130_fd_sc_hd__clkbuf_8
Xfanout886 U$$253/B2 VGND VGND VPWR VPWR U$$207/B2 sky130_fd_sc_hd__clkbuf_4
Xfanout897 U$$1361/B2 VGND VGND VPWR VPWR U$$1327/B2 sky130_fd_sc_hd__buf_4
XFILLER_58_564 VGND VGND VPWR VPWR sky130_fd_sc_hd__fill_1
XFILLER_92_309 VGND VGND VPWR VPWR sky130_fd_sc_hd__decap_4
XFILLER_86_884 VGND VGND VPWR VPWR sky130_fd_sc_hd__decap_4
XU$$3609 U$$3609/A U$$3615/B VGND VGND VPWR VPWR U$$3609/X sky130_fd_sc_hd__xor2_1
XTAP_3202 VGND VPWR sky130_fd_sc_hd__tapvpwrvgnd_1
XTAP_3213 VGND VPWR sky130_fd_sc_hd__tapvpwrvgnd_1
XTAP_3224 VGND VPWR sky130_fd_sc_hd__tapvpwrvgnd_1
XTAP_3235 VGND VPWR sky130_fd_sc_hd__tapvpwrvgnd_1
XFILLER_45_225 VGND VGND VPWR VPWR sky130_ef_sc_hd__decap_12
XTAP_2501 VGND VPWR sky130_fd_sc_hd__tapvpwrvgnd_1
XFILLER_172_3 VGND VGND VPWR VPWR sky130_ef_sc_hd__decap_12
XU$$2908 U$$2908/A U$$2944/B VGND VGND VPWR VPWR U$$2908/X sky130_fd_sc_hd__xor2_1
XTAP_3246 VGND VPWR sky130_fd_sc_hd__tapvpwrvgnd_1
XTAP_3257 VGND VPWR sky130_fd_sc_hd__tapvpwrvgnd_1
XU$$2919 U$$999/B1 U$$2937/A2 U$$866/A1 U$$2937/B2 VGND VGND VPWR VPWR U$$2920/A sky130_fd_sc_hd__a22o_1
XTAP_2512 VGND VPWR sky130_fd_sc_hd__tapvpwrvgnd_1
XANTENNA_202 U$$908/A1 VGND VGND VPWR VPWR sky130_fd_sc_hd__diode_2
XTAP_3268 VGND VPWR sky130_fd_sc_hd__tapvpwrvgnd_1
XANTENNA_213 fanout975/X VGND VGND VPWR VPWR sky130_fd_sc_hd__diode_2
XTAP_2523 VGND VPWR sky130_fd_sc_hd__tapvpwrvgnd_1
XTAP_3279 VGND VPWR sky130_fd_sc_hd__tapvpwrvgnd_1
XTAP_2534 VGND VPWR sky130_fd_sc_hd__tapvpwrvgnd_1
XANTENNA_224 _195_/D VGND VGND VPWR VPWR sky130_fd_sc_hd__diode_2
XFILLER_26_41 VGND VGND VPWR VPWR sky130_fd_sc_hd__decap_8
XTAP_1800 VGND VPWR sky130_fd_sc_hd__tapvpwrvgnd_1
Xdadda_ha_5_124_1 U$$4511/X input156/X VGND VGND VPWR VPWR dadda_fa_6_125_0/CIN dadda_fa_7_124_0/A
+ sky130_fd_sc_hd__ha_1
XTAP_2545 VGND VPWR sky130_fd_sc_hd__tapvpwrvgnd_1
XANTENNA_235 _198_/D VGND VGND VPWR VPWR sky130_fd_sc_hd__diode_2
XFILLER_61_729 VGND VGND VPWR VPWR sky130_ef_sc_hd__decap_12
XTAP_1811 VGND VPWR sky130_fd_sc_hd__tapvpwrvgnd_1
XTAP_2556 VGND VPWR sky130_fd_sc_hd__tapvpwrvgnd_1
XANTENNA_246 _200_/D VGND VGND VPWR VPWR sky130_fd_sc_hd__diode_2
XTAP_1822 VGND VPWR sky130_fd_sc_hd__tapvpwrvgnd_1
XANTENNA_257 U$$279/X VGND VGND VPWR VPWR sky130_fd_sc_hd__diode_2
XTAP_2567 VGND VPWR sky130_fd_sc_hd__tapvpwrvgnd_1
XFILLER_60_228 VGND VGND VPWR VPWR sky130_ef_sc_hd__decap_12
XTAP_1833 VGND VPWR sky130_fd_sc_hd__tapvpwrvgnd_1
XANTENNA_268 U$$4152/A1 VGND VGND VPWR VPWR sky130_fd_sc_hd__diode_2
XTAP_2578 VGND VPWR sky130_fd_sc_hd__tapvpwrvgnd_1
XFILLER_26_85 VGND VGND VPWR VPWR sky130_fd_sc_hd__decap_6
XTAP_1844 VGND VPWR sky130_fd_sc_hd__tapvpwrvgnd_1
XTAP_2589 VGND VPWR sky130_fd_sc_hd__tapvpwrvgnd_1
XFILLER_14_645 VGND VGND VPWR VPWR sky130_fd_sc_hd__fill_2
XTAP_1855 VGND VPWR sky130_fd_sc_hd__tapvpwrvgnd_1
XANTENNA_279 U$$4494/A1 VGND VGND VPWR VPWR sky130_fd_sc_hd__diode_2
XFILLER_159_617 VGND VGND VPWR VPWR sky130_fd_sc_hd__decap_6
XFILLER_13_122 VGND VGND VPWR VPWR sky130_fd_sc_hd__decap_6
XTAP_1866 VGND VPWR sky130_fd_sc_hd__tapvpwrvgnd_1
X_363_ _364_/CLK _363_/D VGND VGND VPWR VPWR _363_/Q sky130_fd_sc_hd__dfxtp_1
XTAP_1877 VGND VPWR sky130_fd_sc_hd__tapvpwrvgnd_1
XFILLER_14_678 VGND VGND VPWR VPWR sky130_ef_sc_hd__decap_12
XTAP_1888 VGND VPWR sky130_fd_sc_hd__tapvpwrvgnd_1
XFILLER_9_104 VGND VGND VPWR VPWR sky130_fd_sc_hd__decap_8
XTAP_1899 VGND VPWR sky130_fd_sc_hd__tapvpwrvgnd_1
XFILLER_9_137 VGND VGND VPWR VPWR sky130_fd_sc_hd__decap_4
X_294_ _422_/CLK _294_/D VGND VGND VPWR VPWR _294_/Q sky130_fd_sc_hd__dfxtp_1
XU$$3431_1820 VGND VGND VPWR VPWR U$$3431_1820/HI U$$3431/A1 sky130_fd_sc_hd__conb_1
XFILLER_6_800 VGND VGND VPWR VPWR sky130_fd_sc_hd__decap_4
XFILLER_127_503 VGND VGND VPWR VPWR sky130_fd_sc_hd__fill_1
XFILLER_139_374 VGND VGND VPWR VPWR sky130_ef_sc_hd__decap_12
XFILLER_127_558 VGND VGND VPWR VPWR sky130_fd_sc_hd__fill_2
Xdadda_fa_3_98_1 dadda_fa_3_98_1/A dadda_fa_3_98_1/B dadda_fa_3_98_1/CIN VGND VGND
+ VPWR VPWR dadda_fa_4_99_0/CIN dadda_fa_4_98_2/A sky130_fd_sc_hd__fa_1
XFILLER_6_877 VGND VGND VPWR VPWR sky130_fd_sc_hd__fill_1
Xdadda_fa_6_75_0 dadda_fa_6_75_0/A dadda_fa_6_75_0/B dadda_fa_6_75_0/CIN VGND VGND
+ VPWR VPWR dadda_fa_7_76_0/B dadda_fa_7_75_0/CIN sky130_fd_sc_hd__fa_1
XFILLER_174_61 VGND VGND VPWR VPWR sky130_fd_sc_hd__decap_3
XFILLER_123_753 VGND VGND VPWR VPWR sky130_ef_sc_hd__decap_12
XFILLER_111_915 VGND VGND VPWR VPWR sky130_ef_sc_hd__decap_12
XFILLER_95_125 VGND VGND VPWR VPWR sky130_fd_sc_hd__fill_1
XFILLER_95_169 VGND VGND VPWR VPWR sky130_fd_sc_hd__decap_4
XFILLER_64_501 VGND VGND VPWR VPWR sky130_ef_sc_hd__decap_12
XFILLER_37_726 VGND VGND VPWR VPWR sky130_fd_sc_hd__fill_2
XFILLER_3_1029 VGND VGND VPWR VPWR sky130_fd_sc_hd__fill_1
XFILLER_76_383 VGND VGND VPWR VPWR sky130_fd_sc_hd__fill_1
XFILLER_36_225 VGND VGND VPWR VPWR sky130_fd_sc_hd__decap_6
XFILLER_36_247 VGND VGND VPWR VPWR sky130_fd_sc_hd__decap_4
XFILLER_36_269 VGND VGND VPWR VPWR sky130_ef_sc_hd__decap_12
XFILLER_52_729 VGND VGND VPWR VPWR sky130_fd_sc_hd__decap_6
XFILLER_91_364 VGND VGND VPWR VPWR sky130_ef_sc_hd__decap_12
XU$$370 U$$505/B1 U$$408/A2 U$$370/B1 U$$408/B2 VGND VGND VPWR VPWR U$$371/A sky130_fd_sc_hd__a22o_1
XFILLER_91_397 VGND VGND VPWR VPWR sky130_fd_sc_hd__fill_1
XU$$381 U$$381/A U$$387/B VGND VGND VPWR VPWR U$$381/X sky130_fd_sc_hd__xor2_1
XU$$392 U$$940/A1 U$$408/A2 U$$942/A1 U$$408/B2 VGND VGND VPWR VPWR U$$393/A sky130_fd_sc_hd__a22o_1
XFILLER_33_965 VGND VGND VPWR VPWR sky130_ef_sc_hd__decap_12
XFILLER_32_497 VGND VGND VPWR VPWR sky130_fd_sc_hd__decap_8
XFILLER_121_1012 VGND VGND VPWR VPWR sky130_fd_sc_hd__decap_4
XFILLER_173_631 VGND VGND VPWR VPWR sky130_fd_sc_hd__decap_4
XFILLER_173_642 VGND VGND VPWR VPWR sky130_ef_sc_hd__decap_12
XFILLER_8_181 VGND VGND VPWR VPWR sky130_fd_sc_hd__decap_6
XFILLER_172_141 VGND VGND VPWR VPWR sky130_fd_sc_hd__fill_1
Xdadda_fa_2_93_0 U$$2853/X U$$2986/X U$$3119/X VGND VGND VPWR VPWR dadda_fa_3_94_0/B
+ dadda_fa_3_93_2/B sky130_fd_sc_hd__fa_1
XFILLER_173_697 VGND VGND VPWR VPWR sky130_fd_sc_hd__decap_4
XFILLER_160_336 VGND VGND VPWR VPWR sky130_fd_sc_hd__decap_4
XFILLER_141_561 VGND VGND VPWR VPWR sky130_ef_sc_hd__decap_12
XFILLER_59_328 VGND VGND VPWR VPWR sky130_fd_sc_hd__decap_8
XFILLER_102_959 VGND VGND VPWR VPWR sky130_fd_sc_hd__decap_4
Xdadda_fa_1_62_6 dadda_fa_1_62_6/A dadda_fa_1_62_6/B dadda_fa_1_62_6/CIN VGND VGND
+ VPWR VPWR dadda_fa_2_63_2/B dadda_fa_2_62_5/B sky130_fd_sc_hd__fa_1
XFILLER_83_821 VGND VGND VPWR VPWR sky130_fd_sc_hd__decap_8
XFILLER_110_981 VGND VGND VPWR VPWR sky130_fd_sc_hd__decap_6
Xdadda_fa_1_55_5 U$$2777/X U$$2910/X U$$3043/X VGND VGND VPWR VPWR dadda_fa_2_56_2/A
+ dadda_fa_2_55_5/A sky130_fd_sc_hd__fa_1
XFILLER_95_692 VGND VGND VPWR VPWR sky130_fd_sc_hd__fill_1
Xdadda_fa_1_48_4 U$$1699/X U$$1832/X U$$1965/X VGND VGND VPWR VPWR dadda_fa_2_49_2/B
+ dadda_fa_2_48_5/A sky130_fd_sc_hd__fa_1
XFILLER_103_57 VGND VGND VPWR VPWR sky130_ef_sc_hd__decap_12
XFILLER_27_269 VGND VGND VPWR VPWR sky130_fd_sc_hd__decap_8
XTAP_1107 VGND VPWR sky130_fd_sc_hd__tapvpwrvgnd_1
XFILLER_43_729 VGND VGND VPWR VPWR sky130_fd_sc_hd__fill_2
XTAP_1118 VGND VPWR sky130_fd_sc_hd__tapvpwrvgnd_1
XTAP_1129 VGND VPWR sky130_fd_sc_hd__tapvpwrvgnd_1
XFILLER_24_932 VGND VGND VPWR VPWR sky130_ef_sc_hd__decap_12
Xdadda_fa_4_18_2 dadda_fa_4_18_2/A dadda_fa_4_18_2/B dadda_ha_3_18_2/SUM VGND VGND
+ VPWR VPWR dadda_fa_5_19_0/CIN dadda_fa_5_18_1/CIN sky130_fd_sc_hd__fa_1
XFILLER_10_103 VGND VGND VPWR VPWR sky130_fd_sc_hd__fill_2
Xdadda_fa_7_92_0 dadda_fa_7_92_0/A dadda_fa_7_92_0/B dadda_fa_7_92_0/CIN VGND VGND
+ VPWR VPWR _389_/D _260_/D sky130_fd_sc_hd__fa_2
XFILLER_164_631 VGND VGND VPWR VPWR sky130_ef_sc_hd__decap_12
XFILLER_137_889 VGND VGND VPWR VPWR sky130_fd_sc_hd__decap_6
XFILLER_136_388 VGND VGND VPWR VPWR sky130_fd_sc_hd__decap_6
XFILLER_152_848 VGND VGND VPWR VPWR sky130_fd_sc_hd__decap_4
XFILLER_88_58 VGND VGND VPWR VPWR sky130_ef_sc_hd__decap_12
XFILLER_120_701 VGND VGND VPWR VPWR sky130_ef_sc_hd__decap_12
XFILLER_144_20 VGND VGND VPWR VPWR sky130_fd_sc_hd__decap_8
Xfanout1604 U$$2862/B1 VGND VGND VPWR VPWR U$$946/A1 sky130_fd_sc_hd__buf_4
Xfanout1615 U$$4506/A1 VGND VGND VPWR VPWR U$$3684/A1 sky130_fd_sc_hd__buf_4
XFILLER_132_583 VGND VGND VPWR VPWR sky130_fd_sc_hd__decap_4
Xfanout1626 U$$2860/A1 VGND VGND VPWR VPWR U$$4504/A1 sky130_fd_sc_hd__clkbuf_4
Xfanout1637 U$$938/A1 VGND VGND VPWR VPWR U$$936/B1 sky130_fd_sc_hd__clkbuf_8
XFILLER_104_296 VGND VGND VPWR VPWR sky130_ef_sc_hd__decap_12
Xfanout650 U$$1218/A2 VGND VGND VPWR VPWR U$$1226/A2 sky130_fd_sc_hd__buf_6
Xfanout1648 U$$2578/B1 VGND VGND VPWR VPWR U$$386/B1 sky130_fd_sc_hd__clkbuf_8
Xfanout661 U$$952/B2 VGND VGND VPWR VPWR U$$902/B2 sky130_fd_sc_hd__clkbuf_8
XU$$4107 U$$4107/A1 U$$4107/A2 U$$4107/B1 U$$4107/B2 VGND VGND VPWR VPWR U$$4108/A
+ sky130_fd_sc_hd__a22o_1
XU$$3422_1819 VGND VGND VPWR VPWR U$$3422_1819/HI U$$3422/B1 sky130_fd_sc_hd__conb_1
Xfanout1659 U$$4496/A1 VGND VGND VPWR VPWR U$$4220/B1 sky130_fd_sc_hd__buf_4
XU$$4118 U$$4392/A1 U$$4158/A2 U$$4257/A1 U$$4158/B2 VGND VGND VPWR VPWR U$$4119/A
+ sky130_fd_sc_hd__a22o_1
XFILLER_59_862 VGND VGND VPWR VPWR sky130_fd_sc_hd__fill_1
Xfanout672 U$$771/B2 VGND VGND VPWR VPWR U$$743/B2 sky130_fd_sc_hd__clkbuf_4
XU$$4129 U$$4129/A U$$4133/B VGND VGND VPWR VPWR U$$4129/X sky130_fd_sc_hd__xor2_1
XFILLER_77_169 VGND VGND VPWR VPWR sky130_ef_sc_hd__decap_12
Xfanout683 U$$553/X VGND VGND VPWR VPWR U$$642/B2 sky130_fd_sc_hd__buf_4
Xfanout694 U$$543/B2 VGND VGND VPWR VPWR U$$501/B2 sky130_fd_sc_hd__buf_4
XFILLER_93_629 VGND VGND VPWR VPWR sky130_fd_sc_hd__decap_4
XFILLER_59_895 VGND VGND VPWR VPWR sky130_fd_sc_hd__fill_1
XFILLER_86_681 VGND VGND VPWR VPWR sky130_ef_sc_hd__decap_12
XTAP_3010 VGND VPWR sky130_fd_sc_hd__tapvpwrvgnd_1
XU$$3406 U$$4226/B1 U$$3416/A2 U$$4093/A1 U$$3416/B2 VGND VGND VPWR VPWR U$$3407/A
+ sky130_fd_sc_hd__a22o_1
XU$$3417 U$$3417/A U$$3417/B VGND VGND VPWR VPWR U$$3417/X sky130_fd_sc_hd__xor2_1
XU$$3428 U$$3562/A U$$3428/B VGND VGND VPWR VPWR U$$3428/X sky130_fd_sc_hd__and2_1
XTAP_3021 VGND VPWR sky130_fd_sc_hd__tapvpwrvgnd_1
XFILLER_85_180 VGND VGND VPWR VPWR sky130_fd_sc_hd__decap_4
XTAP_3032 VGND VPWR sky130_fd_sc_hd__tapvpwrvgnd_1
XU$$3439 U$$3713/A1 U$$3439/A2 U$$3713/B1 U$$3439/B2 VGND VGND VPWR VPWR U$$3440/A
+ sky130_fd_sc_hd__a22o_1
XU$$2705 U$$2840/B1 U$$2707/A2 U$$2707/A1 U$$2707/B2 VGND VGND VPWR VPWR U$$2706/A
+ sky130_fd_sc_hd__a22o_1
XTAP_3043 VGND VPWR sky130_fd_sc_hd__tapvpwrvgnd_1
XTAP_3054 VGND VPWR sky130_fd_sc_hd__tapvpwrvgnd_1
XU$$2716 U$$2716/A U$$2739/A VGND VGND VPWR VPWR U$$2716/X sky130_fd_sc_hd__xor2_1
XTAP_2320 VGND VPWR sky130_fd_sc_hd__tapvpwrvgnd_1
XU$$2727 U$$946/A1 U$$2737/A2 U$$948/A1 U$$2737/B2 VGND VGND VPWR VPWR U$$2728/A sky130_fd_sc_hd__a22o_1
XTAP_3065 VGND VPWR sky130_fd_sc_hd__tapvpwrvgnd_1
XU$$2738 U$$2738/A U$$2738/B VGND VGND VPWR VPWR U$$2738/X sky130_fd_sc_hd__xor2_1
XTAP_2331 VGND VPWR sky130_fd_sc_hd__tapvpwrvgnd_1
XTAP_3076 VGND VPWR sky130_fd_sc_hd__tapvpwrvgnd_1
XFILLER_160_85 VGND VGND VPWR VPWR sky130_fd_sc_hd__decap_4
XU$$2749 U$$2749/A U$$2805/B VGND VGND VPWR VPWR U$$2749/X sky130_fd_sc_hd__xor2_1
XTAP_2342 VGND VPWR sky130_fd_sc_hd__tapvpwrvgnd_1
XTAP_3087 VGND VPWR sky130_fd_sc_hd__tapvpwrvgnd_1
XTAP_2353 VGND VPWR sky130_fd_sc_hd__tapvpwrvgnd_1
Xdadda_fa_3_20_2 U$$845/X U$$978/X U$$1111/X VGND VGND VPWR VPWR dadda_fa_4_21_1/A
+ dadda_fa_4_20_2/B sky130_fd_sc_hd__fa_1
XTAP_3098 VGND VPWR sky130_fd_sc_hd__tapvpwrvgnd_1
XTAP_2364 VGND VPWR sky130_fd_sc_hd__tapvpwrvgnd_1
XFILLER_15_943 VGND VGND VPWR VPWR sky130_fd_sc_hd__decap_8
XTAP_1630 VGND VPWR sky130_fd_sc_hd__tapvpwrvgnd_1
XTAP_2375 VGND VPWR sky130_fd_sc_hd__tapvpwrvgnd_1
XTAP_1641 VGND VPWR sky130_fd_sc_hd__tapvpwrvgnd_1
XTAP_2386 VGND VPWR sky130_fd_sc_hd__tapvpwrvgnd_1
XTAP_1652 VGND VPWR sky130_fd_sc_hd__tapvpwrvgnd_1
XTAP_2397 VGND VPWR sky130_fd_sc_hd__tapvpwrvgnd_1
X_415_ _415_/CLK _415_/D VGND VGND VPWR VPWR _415_/Q sky130_fd_sc_hd__dfxtp_1
XTAP_1663 VGND VPWR sky130_fd_sc_hd__tapvpwrvgnd_1
XTAP_1674 VGND VPWR sky130_fd_sc_hd__tapvpwrvgnd_1
XTAP_1685 VGND VPWR sky130_fd_sc_hd__tapvpwrvgnd_1
XTAP_1696 VGND VPWR sky130_fd_sc_hd__tapvpwrvgnd_1
XFILLER_169_61 VGND VGND VPWR VPWR sky130_fd_sc_hd__fill_1
X_346_ _346_/CLK _346_/D VGND VGND VPWR VPWR _346_/Q sky130_fd_sc_hd__dfxtp_1
XFILLER_168_981 VGND VGND VPWR VPWR sky130_ef_sc_hd__decap_12
XFILLER_174_428 VGND VGND VPWR VPWR sky130_fd_sc_hd__decap_4
X_277_ _405_/CLK _277_/D VGND VGND VPWR VPWR _277_/Q sky130_fd_sc_hd__dfxtp_1
XFILLER_139_193 VGND VGND VPWR VPWR sky130_ef_sc_hd__decap_12
XFILLER_127_355 VGND VGND VPWR VPWR sky130_ef_sc_hd__decap_12
XFILLER_154_141 VGND VGND VPWR VPWR sky130_fd_sc_hd__decap_6
XFILLER_115_517 VGND VGND VPWR VPWR sky130_ef_sc_hd__decap_12
XFILLER_142_303 VGND VGND VPWR VPWR sky130_fd_sc_hd__decap_4
XFILLER_5_151 VGND VGND VPWR VPWR sky130_ef_sc_hd__decap_12
XFILLER_154_174 VGND VGND VPWR VPWR sky130_ef_sc_hd__decap_12
XFILLER_170_645 VGND VGND VPWR VPWR sky130_fd_sc_hd__fill_2
XFILLER_69_615 VGND VGND VPWR VPWR sky130_fd_sc_hd__fill_1
XFILLER_123_561 VGND VGND VPWR VPWR sky130_ef_sc_hd__decap_12
XFILLER_96_401 VGND VGND VPWR VPWR sky130_ef_sc_hd__decap_12
Xdadda_fa_2_72_5 dadda_fa_2_72_5/A dadda_fa_2_72_5/B dadda_fa_2_72_5/CIN VGND VGND
+ VPWR VPWR dadda_fa_3_73_2/A dadda_fa_4_72_0/A sky130_fd_sc_hd__fa_1
XFILLER_97_935 VGND VGND VPWR VPWR sky130_fd_sc_hd__fill_1
XFILLER_151_881 VGND VGND VPWR VPWR sky130_ef_sc_hd__decap_12
XFILLER_151_1005 VGND VGND VPWR VPWR sky130_fd_sc_hd__decap_3
XFILLER_96_434 VGND VGND VPWR VPWR sky130_ef_sc_hd__decap_12
Xdadda_fa_2_65_4 dadda_fa_2_65_4/A dadda_fa_2_65_4/B dadda_fa_2_65_4/CIN VGND VGND
+ VPWR VPWR dadda_fa_3_66_1/CIN dadda_fa_3_65_3/CIN sky130_fd_sc_hd__fa_1
XFILLER_110_233 VGND VGND VPWR VPWR sky130_fd_sc_hd__decap_8
XFILLER_1_390 VGND VGND VPWR VPWR sky130_fd_sc_hd__fill_2
XFILLER_96_489 VGND VGND VPWR VPWR sky130_ef_sc_hd__decap_12
Xdadda_fa_2_58_3 dadda_fa_2_58_3/A dadda_fa_2_58_3/B dadda_fa_2_58_3/CIN VGND VGND
+ VPWR VPWR dadda_fa_3_59_1/B dadda_fa_3_58_3/B sky130_fd_sc_hd__fa_1
Xdadda_fa_5_28_1 dadda_fa_5_28_1/A dadda_fa_5_28_1/B dadda_fa_5_28_1/CIN VGND VGND
+ VPWR VPWR dadda_fa_6_29_0/B dadda_fa_7_28_0/A sky130_fd_sc_hd__fa_2
XU$$3940 U$$4488/A1 U$$3948/A2 U$$4490/A1 U$$3948/B2 VGND VGND VPWR VPWR U$$3941/A
+ sky130_fd_sc_hd__a22o_1
XU$$3951 U$$3951/A U$$3965/B VGND VGND VPWR VPWR U$$3951/X sky130_fd_sc_hd__xor2_1
XFILLER_25_729 VGND VGND VPWR VPWR sky130_ef_sc_hd__decap_12
XU$$3962 U$$4508/B1 U$$3970/A2 U$$3964/A1 U$$3970/B2 VGND VGND VPWR VPWR U$$3963/A
+ sky130_fd_sc_hd__a22o_1
XU$$3973 U$$3973/A VGND VGND VPWR VPWR U$$3973/Y sky130_fd_sc_hd__inv_1
XFILLER_18_781 VGND VGND VPWR VPWR sky130_ef_sc_hd__decap_12
XU$$3984 U$$3984/A U$$4026/B VGND VGND VPWR VPWR U$$3984/X sky130_fd_sc_hd__xor2_1
XU$$3995 U$$4132/A1 U$$4025/A2 U$$4132/B1 U$$4025/B2 VGND VGND VPWR VPWR U$$3996/A
+ sky130_fd_sc_hd__a22o_1
XFILLER_52_548 VGND VGND VPWR VPWR sky130_fd_sc_hd__decap_4
XFILLER_91_194 VGND VGND VPWR VPWR sky130_fd_sc_hd__fill_2
XFILLER_33_740 VGND VGND VPWR VPWR sky130_ef_sc_hd__decap_12
XFILLER_134_804 VGND VGND VPWR VPWR sky130_fd_sc_hd__decap_8
Xdadda_fa_5_102_1 dadda_fa_5_102_1/A dadda_fa_5_102_1/B dadda_fa_5_102_1/CIN VGND
+ VGND VPWR VPWR dadda_fa_6_103_0/B dadda_fa_7_102_0/A sky130_fd_sc_hd__fa_1
XFILLER_119_889 VGND VGND VPWR VPWR sky130_fd_sc_hd__decap_6
XFILLER_145_152 VGND VGND VPWR VPWR sky130_ef_sc_hd__decap_12
XFILLER_173_483 VGND VGND VPWR VPWR sky130_fd_sc_hd__fill_1
XFILLER_133_347 VGND VGND VPWR VPWR sky130_ef_sc_hd__decap_12
XFILLER_121_509 VGND VGND VPWR VPWR sky130_fd_sc_hd__fill_1
XFILLER_0_806 VGND VGND VPWR VPWR sky130_fd_sc_hd__decap_6
Xoutput264 output264/A VGND VGND VPWR VPWR o[106] sky130_fd_sc_hd__buf_2
XFILLER_102_701 VGND VGND VPWR VPWR sky130_fd_sc_hd__fill_2
Xoutput275 output275/A VGND VGND VPWR VPWR o[116] sky130_fd_sc_hd__buf_2
Xoutput286 output286/A VGND VGND VPWR VPWR o[126] sky130_fd_sc_hd__buf_2
XFILLER_87_412 VGND VGND VPWR VPWR sky130_fd_sc_hd__decap_4
Xoutput297 output297/A VGND VGND VPWR VPWR o[20] sky130_fd_sc_hd__buf_2
XU$$2061_1798 VGND VGND VPWR VPWR U$$2061_1798/HI U$$2061/A1 sky130_fd_sc_hd__conb_1
XFILLER_87_445 VGND VGND VPWR VPWR sky130_fd_sc_hd__decap_3
XFILLER_141_391 VGND VGND VPWR VPWR sky130_fd_sc_hd__fill_1
Xdadda_fa_1_60_3 U$$3186/X U$$3319/X U$$3452/X VGND VGND VPWR VPWR dadda_fa_2_61_1/B
+ dadda_fa_2_60_4/B sky130_fd_sc_hd__fa_1
XFILLER_114_23 VGND VGND VPWR VPWR sky130_fd_sc_hd__decap_4
XFILLER_114_45 VGND VGND VPWR VPWR sky130_ef_sc_hd__decap_12
Xdadda_fa_1_53_2 U$$1177/X U$$1310/X U$$1443/X VGND VGND VPWR VPWR dadda_fa_2_54_1/A
+ dadda_fa_2_53_4/A sky130_fd_sc_hd__fa_1
XFILLER_56_843 VGND VGND VPWR VPWR sky130_ef_sc_hd__decap_12
XFILLER_74_27 VGND VGND VPWR VPWR sky130_fd_sc_hd__fill_1
Xdadda_fa_4_30_1 dadda_fa_4_30_1/A dadda_fa_4_30_1/B dadda_fa_4_30_1/CIN VGND VGND
+ VPWR VPWR dadda_fa_5_31_0/B dadda_fa_5_30_1/B sky130_fd_sc_hd__fa_1
XFILLER_28_545 VGND VGND VPWR VPWR sky130_ef_sc_hd__decap_12
XFILLER_167_1001 VGND VGND VPWR VPWR sky130_fd_sc_hd__fill_1
Xdadda_fa_1_46_1 U$$498/X U$$631/X U$$764/X VGND VGND VPWR VPWR dadda_fa_2_47_2/A
+ dadda_fa_2_46_4/B sky130_fd_sc_hd__fa_1
XFILLER_28_589 VGND VGND VPWR VPWR sky130_fd_sc_hd__fill_2
Xdadda_fa_4_23_0 dadda_fa_4_23_0/A dadda_fa_4_23_0/B dadda_fa_4_23_0/CIN VGND VGND
+ VPWR VPWR dadda_fa_5_24_0/A dadda_fa_5_23_1/A sky130_fd_sc_hd__fa_1
Xdadda_fa_1_39_0 U$$85/X U$$218/X U$$351/X VGND VGND VPWR VPWR dadda_fa_2_40_4/A dadda_fa_2_39_5/B
+ sky130_fd_sc_hd__fa_1
XFILLER_82_172 VGND VGND VPWR VPWR sky130_ef_sc_hd__decap_12
XFILLER_130_22 VGND VGND VPWR VPWR sky130_fd_sc_hd__decap_6
XFILLER_169_723 VGND VGND VPWR VPWR sky130_fd_sc_hd__decap_4
XFILLER_168_211 VGND VGND VPWR VPWR sky130_ef_sc_hd__decap_12
XFILLER_70_389 VGND VGND VPWR VPWR sky130_ef_sc_hd__decap_12
X_200_ _328_/CLK _200_/D VGND VGND VPWR VPWR _200_/Q sky130_fd_sc_hd__dfxtp_1
XFILLER_169_778 VGND VGND VPWR VPWR sky130_fd_sc_hd__decap_6
XFILLER_135_3 VGND VGND VPWR VPWR sky130_ef_sc_hd__decap_12
XFILLER_23_75 VGND VGND VPWR VPWR sky130_fd_sc_hd__fill_1
Xfinal_adder.U$$1105 final_adder.U$$174/B final_adder.U$$945/X VGND VGND VPWR VPWR
+ output364/A sky130_fd_sc_hd__xor2_1
Xfinal_adder.U$$1116 final_adder.U$$162/A final_adder.U$$871/X VGND VGND VPWR VPWR
+ output376/A sky130_fd_sc_hd__xor2_1
Xfinal_adder.U$$1127 final_adder.U$$152/B final_adder.U$$923/X VGND VGND VPWR VPWR
+ output261/A sky130_fd_sc_hd__xor2_1
XFILLER_7_449 VGND VGND VPWR VPWR sky130_fd_sc_hd__decap_8
Xfinal_adder.U$$1138 final_adder.U$$140/A final_adder.U$$849/X VGND VGND VPWR VPWR
+ output273/A sky130_fd_sc_hd__xor2_1
Xfinal_adder.U$$1149 final_adder.U$$130/B final_adder.U$$901/X VGND VGND VPWR VPWR
+ output285/A sky130_fd_sc_hd__xor2_1