* NGSPICE file created from RAM32_1RW1R.ext - technology: sky130A

* Black-box entry subcircuit for sky130_fd_sc_hd__dlxtp_1 abstract view
.subckt sky130_fd_sc_hd__dlxtp_1 D GATE VGND VNB VPB VPWR Q
.ends

* Black-box entry subcircuit for sky130_fd_sc_hd__tapvpwrvgnd_1 abstract view
.subckt sky130_fd_sc_hd__tapvpwrvgnd_1 VGND VPWR
.ends

* Black-box entry subcircuit for sky130_fd_sc_hd__ebufn_2 abstract view
.subckt sky130_fd_sc_hd__ebufn_2 A TE_B VGND VNB VPB VPWR Z
.ends

* Black-box entry subcircuit for sky130_fd_sc_hd__dlclkp_1 abstract view
.subckt sky130_fd_sc_hd__dlclkp_1 CLK GATE VGND VNB VPB VPWR GCLK
.ends

* Black-box entry subcircuit for sky130_fd_sc_hd__clkbuf_2 abstract view
.subckt sky130_fd_sc_hd__clkbuf_2 A VGND VNB VPB VPWR X
.ends

* Black-box entry subcircuit for sky130_fd_sc_hd__diode_2 abstract view
.subckt sky130_fd_sc_hd__diode_2 DIODE VGND VNB VPB VPWR
.ends

* Black-box entry subcircuit for sky130_fd_sc_hd__and2_1 abstract view
.subckt sky130_fd_sc_hd__and2_1 A B VGND VNB VPB VPWR X
.ends

* Black-box entry subcircuit for sky130_fd_sc_hd__decap_12 abstract view
.subckt sky130_fd_sc_hd__decap_12 VGND VNB VPB VPWR
.ends

* Black-box entry subcircuit for sky130_fd_sc_hd__nor4b_2 abstract view
.subckt sky130_fd_sc_hd__nor4b_2 A B C D_N VGND VNB VPB VPWR Y
.ends

* Black-box entry subcircuit for sky130_fd_sc_hd__decap_4 abstract view
.subckt sky130_fd_sc_hd__decap_4 VGND VNB VPB VPWR
.ends

* Black-box entry subcircuit for sky130_fd_sc_hd__inv_1 abstract view
.subckt sky130_fd_sc_hd__inv_1 A VGND VNB VPB VPWR Y
.ends

* Black-box entry subcircuit for sky130_fd_sc_hd__dfxtp_1 abstract view
.subckt sky130_fd_sc_hd__dfxtp_1 CLK D VGND VNB VPB VPWR Q
.ends

* Black-box entry subcircuit for sky130_fd_sc_hd__clkbuf_4 abstract view
.subckt sky130_fd_sc_hd__clkbuf_4 A VGND VNB VPB VPWR X
.ends

* Black-box entry subcircuit for sky130_fd_sc_hd__decap_6 abstract view
.subckt sky130_fd_sc_hd__decap_6 VGND VNB VPB VPWR
.ends

* Black-box entry subcircuit for sky130_fd_sc_hd__clkbuf_16 abstract view
.subckt sky130_fd_sc_hd__clkbuf_16 A VGND VNB VPB VPWR X
.ends

* Black-box entry subcircuit for sky130_fd_sc_hd__and4bb_2 abstract view
.subckt sky130_fd_sc_hd__and4bb_2 A_N B_N C D VGND VNB VPB VPWR X
.ends

* Black-box entry subcircuit for sky130_fd_sc_hd__decap_3 abstract view
.subckt sky130_fd_sc_hd__decap_3 VGND VNB VPB VPWR
.ends

* Black-box entry subcircuit for sky130_fd_sc_hd__decap_8 abstract view
.subckt sky130_fd_sc_hd__decap_8 VGND VNB VPB VPWR
.ends

* Black-box entry subcircuit for sky130_fd_sc_hd__fill_2 abstract view
.subckt sky130_fd_sc_hd__fill_2 VGND VNB VPB VPWR
.ends

* Black-box entry subcircuit for sky130_fd_sc_hd__conb_1 abstract view
.subckt sky130_fd_sc_hd__conb_1 VGND VNB VPB VPWR HI LO
.ends

* Black-box entry subcircuit for sky130_fd_sc_hd__and4b_2 abstract view
.subckt sky130_fd_sc_hd__and4b_2 A_N B C D VGND VNB VPB VPWR X
.ends

* Black-box entry subcircuit for sky130_fd_sc_hd__and4_2 abstract view
.subckt sky130_fd_sc_hd__and4_2 A B C D VGND VNB VPB VPWR X
.ends

* Black-box entry subcircuit for sky130_fd_sc_hd__nor3b_2 abstract view
.subckt sky130_fd_sc_hd__nor3b_2 A B C_N VGND VNB VPB VPWR Y
.ends

* Black-box entry subcircuit for sky130_fd_sc_hd__and3b_2 abstract view
.subckt sky130_fd_sc_hd__and3b_2 A_N B C VGND VNB VPB VPWR X
.ends

* Black-box entry subcircuit for sky130_fd_sc_hd__and3_2 abstract view
.subckt sky130_fd_sc_hd__and3_2 A B C VGND VNB VPB VPWR X
.ends

.subckt RAM32_1RW1R A0[0] A0[1] A0[2] A0[3] A0[4] A1[0] A1[1] A1[2] A1[3] A1[4] CLK
+ Di0[0] Di0[10] Di0[11] Di0[12] Di0[13] Di0[14] Di0[15] Di0[16] Di0[17] Di0[18] Di0[19]
+ Di0[1] Di0[20] Di0[21] Di0[22] Di0[23] Di0[24] Di0[25] Di0[26] Di0[27] Di0[28] Di0[29]
+ Di0[2] Di0[30] Di0[31] Di0[32] Di0[33] Di0[34] Di0[35] Di0[36] Di0[37] Di0[38] Di0[39]
+ Di0[3] Di0[40] Di0[41] Di0[42] Di0[43] Di0[44] Di0[45] Di0[46] Di0[47] Di0[48] Di0[49]
+ Di0[4] Di0[50] Di0[51] Di0[52] Di0[53] Di0[54] Di0[55] Di0[56] Di0[57] Di0[58] Di0[59]
+ Di0[5] Di0[60] Di0[61] Di0[62] Di0[63] Di0[6] Di0[7] Di0[8] Di0[9] Do0[0] Do0[10]
+ Do0[11] Do0[12] Do0[13] Do0[14] Do0[15] Do0[16] Do0[17] Do0[18] Do0[19] Do0[1] Do0[20]
+ Do0[21] Do0[22] Do0[23] Do0[24] Do0[25] Do0[26] Do0[27] Do0[28] Do0[29] Do0[2] Do0[30]
+ Do0[31] Do0[32] Do0[33] Do0[34] Do0[35] Do0[36] Do0[37] Do0[38] Do0[39] Do0[3] Do0[40]
+ Do0[41] Do0[42] Do0[43] Do0[44] Do0[45] Do0[46] Do0[47] Do0[48] Do0[49] Do0[4] Do0[50]
+ Do0[51] Do0[52] Do0[53] Do0[54] Do0[55] Do0[56] Do0[57] Do0[58] Do0[59] Do0[5] Do0[60]
+ Do0[61] Do0[62] Do0[63] Do0[6] Do0[7] Do0[8] Do0[9] Do1[0] Do1[10] Do1[11] Do1[12]
+ Do1[13] Do1[14] Do1[15] Do1[16] Do1[17] Do1[18] Do1[19] Do1[1] Do1[20] Do1[21] Do1[22]
+ Do1[23] Do1[24] Do1[25] Do1[26] Do1[27] Do1[28] Do1[29] Do1[2] Do1[30] Do1[31] Do1[32]
+ Do1[33] Do1[34] Do1[35] Do1[36] Do1[37] Do1[38] Do1[39] Do1[3] Do1[40] Do1[41] Do1[42]
+ Do1[43] Do1[44] Do1[45] Do1[46] Do1[47] Do1[48] Do1[49] Do1[4] Do1[50] Do1[51] Do1[52]
+ Do1[53] Do1[54] Do1[55] Do1[56] Do1[57] Do1[58] Do1[59] Do1[5] Do1[60] Do1[61] Do1[62]
+ Do1[63] Do1[6] Do1[7] Do1[8] Do1[9] EN0 EN1 VGND VPWR WE0[0] WE0[1] WE0[2] WE0[3]
+ WE0[4] WE0[5] WE0[6] WE0[7]
XSLICE\[2\].RAM8.WORD\[7\].W.BYTE\[2\].B.BIT\[6\].genblk1.STORAGE DIBUF\[22\]/X SLICE\[2\].RAM8.WORD\[7\].W.BYTE\[2\].B.genblk1.CG/GCLK
+ VGND VGND VPWR VPWR SLICE\[2\].RAM8.WORD\[7\].W.BYTE\[2\].B.BIT\[6\].OBUF1/A sky130_fd_sc_hd__dlxtp_1
XSLICE\[2\].RAM8.WORD\[1\].W.BYTE\[3\].B.BIT\[7\].genblk1.STORAGE DIBUF\[31\]/X SLICE\[2\].RAM8.WORD\[1\].W.BYTE\[3\].B.genblk1.CG/GCLK
+ VGND VGND VPWR VPWR SLICE\[2\].RAM8.WORD\[1\].W.BYTE\[3\].B.BIT\[7\].OBUF1/A sky130_fd_sc_hd__dlxtp_1
Xtap_3_8 VGND VPWR sky130_fd_sc_hd__tapvpwrvgnd_1
Xtap_24_24 VGND VPWR sky130_fd_sc_hd__tapvpwrvgnd_1
Xtap_24_13 VGND VPWR sky130_fd_sc_hd__tapvpwrvgnd_1
XSLICE\[0\].RAM8.WORD\[2\].W.BYTE\[7\].B.BIT\[7\].OBUF1 SLICE\[0\].RAM8.WORD\[2\].W.BYTE\[7\].B.BIT\[7\].OBUF1/A
+ SLICE\[0\].RAM8.WORD\[2\].W.BYTE\[7\].B.SEL1INV/Y VGND VGND VPWR VPWR BYTE\[7\].FLOATBUF1\[63\]/Z
+ sky130_fd_sc_hd__ebufn_2
XSLICE\[1\].RAM8.WORD\[1\].W.BYTE\[7\].B.genblk1.CG SLICE\[1\].RAM8.WORD\[1\].W.BYTE\[7\].B.genblk1.CG/CLK
+ SLICE\[1\].RAM8.WORD\[1\].W.BYTE\[7\].B.CGAND/X VGND VGND VPWR VPWR SLICE\[1\].RAM8.WORD\[1\].W.BYTE\[7\].B.genblk1.CG/GCLK
+ sky130_fd_sc_hd__dlclkp_1
Xtap_24_68 VGND VPWR sky130_fd_sc_hd__tapvpwrvgnd_1
Xtap_24_57 VGND VPWR sky130_fd_sc_hd__tapvpwrvgnd_1
Xtap_24_46 VGND VPWR sky130_fd_sc_hd__tapvpwrvgnd_1
XSLICE\[2\].RAM8.WORD\[7\].W.BYTE\[4\].B.BIT\[3\].OBUF1 SLICE\[2\].RAM8.WORD\[7\].W.BYTE\[4\].B.BIT\[3\].OBUF1/A
+ SLICE\[2\].RAM8.WORD\[7\].W.BYTE\[4\].B.SEL1INV/Y VGND VGND VPWR VPWR BYTE\[4\].FLOATBUF1\[35\]/Z
+ sky130_fd_sc_hd__ebufn_2
Xtap_24_35 VGND VPWR sky130_fd_sc_hd__tapvpwrvgnd_1
XSLICE\[2\].RAM8.WORD\[7\].W.BYTE\[2\].B.BIT\[4\].OBUF0 SLICE\[2\].RAM8.WORD\[7\].W.BYTE\[2\].B.BIT\[4\].OBUF1/A
+ SLICE\[2\].RAM8.WORD\[7\].W.BYTE\[2\].B.SEL0INV/Y VGND VGND VPWR VPWR BYTE\[2\].FLOATBUF0\[20\]/Z
+ sky130_fd_sc_hd__ebufn_2
XA0BUF\[0\] A0[0] VGND VGND VPWR VPWR A0BUF\[0\]/X sky130_fd_sc_hd__clkbuf_2
XSLICE\[1\].RAM8.WORD\[2\].W.BYTE\[5\].B.BIT\[3\].genblk1.STORAGE DIBUF\[43\]/X SLICE\[1\].RAM8.WORD\[2\].W.BYTE\[5\].B.genblk1.CG/GCLK
+ VGND VGND VPWR VPWR SLICE\[1\].RAM8.WORD\[2\].W.BYTE\[5\].B.BIT\[3\].OBUF1/A sky130_fd_sc_hd__dlxtp_1
XSLICE\[2\].RAM8.WORD\[5\].W.BYTE\[0\].B.BIT\[5\].genblk1.STORAGE DIBUF\[5\]/X SLICE\[2\].RAM8.WORD\[5\].W.BYTE\[0\].B.genblk1.CG/GCLK
+ VGND VGND VPWR VPWR SLICE\[2\].RAM8.WORD\[5\].W.BYTE\[0\].B.BIT\[5\].OBUF1/A sky130_fd_sc_hd__dlxtp_1
XSLICE\[1\].RAM8.WORD\[5\].W.BYTE\[4\].B.DIODE_CLK SLICE\[1\].RAM8.WORD\[5\].W.CLKBUF/X
+ VGND VGND VPWR VPWR sky130_fd_sc_hd__diode_2
XSLICE\[1\].RAM8.WORD\[6\].W.BYTE\[2\].B.BIT\[1\].genblk1.STORAGE DIBUF\[17\]/X SLICE\[1\].RAM8.WORD\[6\].W.BYTE\[2\].B.genblk1.CG/GCLK
+ VGND VGND VPWR VPWR SLICE\[1\].RAM8.WORD\[6\].W.BYTE\[2\].B.BIT\[1\].OBUF1/A sky130_fd_sc_hd__dlxtp_1
XSLICE\[1\].RAM8.WORD\[0\].W.BYTE\[3\].B.BIT\[2\].genblk1.STORAGE DIBUF\[26\]/X SLICE\[1\].RAM8.WORD\[0\].W.BYTE\[3\].B.genblk1.CG/GCLK
+ VGND VGND VPWR VPWR SLICE\[1\].RAM8.WORD\[0\].W.BYTE\[3\].B.BIT\[2\].OBUF1/A sky130_fd_sc_hd__dlxtp_1
Xfill_12_12 VGND VPWR sky130_fd_sc_hd__tapvpwrvgnd_1
XSLICE\[2\].RAM8.WORD\[1\].W.BYTE\[7\].B.BIT\[4\].OBUF0 SLICE\[2\].RAM8.WORD\[1\].W.BYTE\[7\].B.BIT\[4\].OBUF1/A
+ SLICE\[2\].RAM8.WORD\[1\].W.BYTE\[7\].B.SEL0INV/Y VGND VGND VPWR VPWR BYTE\[7\].FLOATBUF0\[60\]/Z
+ sky130_fd_sc_hd__ebufn_2
XSLICE\[0\].RAM8.WORD\[6\].W.BYTE\[6\].B.CGAND SLICE\[0\].RAM8.WORD\[6\].W.SEL0BUF/X
+ SLICE\[0\].RAM8.WEBUF\[6\]/X VGND VGND VPWR VPWR SLICE\[0\].RAM8.WORD\[6\].W.BYTE\[6\].B.CGAND/X
+ sky130_fd_sc_hd__and2_1
Xfill_12_23 VGND VGND VPWR VPWR sky130_fd_sc_hd__decap_12
Xfill_12_34 VGND VPWR sky130_fd_sc_hd__tapvpwrvgnd_1
XSLICE\[1\].RAM8.WORD\[4\].W.BYTE\[0\].B.BIT\[0\].genblk1.STORAGE DIBUF\[0\]/X SLICE\[1\].RAM8.WORD\[4\].W.BYTE\[0\].B.genblk1.CG/GCLK
+ VGND VGND VPWR VPWR SLICE\[1\].RAM8.WORD\[4\].W.BYTE\[0\].B.BIT\[0\].OBUF1/A sky130_fd_sc_hd__dlxtp_1
Xtap_22_0 VGND VPWR sky130_fd_sc_hd__tapvpwrvgnd_1
XSLICE\[1\].RAM8.WORD\[2\].W.BYTE\[3\].B.BIT\[2\].OBUF1 SLICE\[1\].RAM8.WORD\[2\].W.BYTE\[3\].B.BIT\[2\].OBUF1/A
+ SLICE\[1\].RAM8.WORD\[2\].W.BYTE\[3\].B.SEL1INV/Y VGND VGND VPWR VPWR BYTE\[3\].FLOATBUF1\[26\]/Z
+ sky130_fd_sc_hd__ebufn_2
XSLICE\[1\].RAM8.WORD\[2\].W.BYTE\[1\].B.BIT\[3\].OBUF0 SLICE\[1\].RAM8.WORD\[2\].W.BYTE\[1\].B.BIT\[3\].OBUF1/A
+ SLICE\[1\].RAM8.WORD\[2\].W.BYTE\[1\].B.SEL0INV/Y VGND VGND VPWR VPWR BYTE\[1\].FLOATBUF0\[11\]/Z
+ sky130_fd_sc_hd__ebufn_2
XSLICE\[1\].RAM8.WORD\[6\].W.BYTE\[6\].B.BIT\[5\].OBUF1 SLICE\[1\].RAM8.WORD\[6\].W.BYTE\[6\].B.BIT\[5\].OBUF1/A
+ SLICE\[1\].RAM8.WORD\[6\].W.BYTE\[6\].B.SEL1INV/Y VGND VGND VPWR VPWR BYTE\[6\].FLOATBUF1\[53\]/Z
+ sky130_fd_sc_hd__ebufn_2
XSLICE\[0\].RAM8.WORD\[4\].W.BYTE\[6\].B.BIT\[0\].OBUF0 SLICE\[0\].RAM8.WORD\[4\].W.BYTE\[6\].B.BIT\[0\].OBUF1/A
+ SLICE\[0\].RAM8.WORD\[4\].W.BYTE\[6\].B.SEL0INV/Y VGND VGND VPWR VPWR BYTE\[6\].FLOATBUF0\[48\]/Z
+ sky130_fd_sc_hd__ebufn_2
XSLICE\[1\].RAM8.WORD\[6\].W.BYTE\[4\].B.BIT\[6\].OBUF0 SLICE\[1\].RAM8.WORD\[6\].W.BYTE\[4\].B.BIT\[6\].OBUF1/A
+ SLICE\[1\].RAM8.WORD\[6\].W.BYTE\[4\].B.SEL0INV/Y VGND VGND VPWR VPWR BYTE\[4\].FLOATBUF0\[38\]/Z
+ sky130_fd_sc_hd__ebufn_2
Xfill_0_14 VGND VPWR sky130_fd_sc_hd__tapvpwrvgnd_1
Xfill_0_58 VGND VGND VPWR VPWR sky130_fd_sc_hd__decap_12
Xfill_0_47 VGND VPWR sky130_fd_sc_hd__tapvpwrvgnd_1
Xfill_0_36 VGND VGND VPWR VPWR sky130_fd_sc_hd__decap_12
Xfill_0_25 VGND VGND VPWR VPWR sky130_fd_sc_hd__decap_12
Xfill_0_69 VGND VGND VPWR VPWR sky130_fd_sc_hd__decap_12
XSLICE\[0\].RAM8.WORD\[7\].W.BYTE\[0\].B.BIT\[4\].OBUF1 SLICE\[0\].RAM8.WORD\[7\].W.BYTE\[0\].B.BIT\[4\].OBUF1/A
+ SLICE\[0\].RAM8.WORD\[7\].W.BYTE\[0\].B.SEL1INV/Y VGND VGND VPWR VPWR BYTE\[0\].FLOATBUF1\[4\]/Z
+ sky130_fd_sc_hd__ebufn_2
XSLICE\[3\].RAM8.WORD\[5\].W.BYTE\[6\].B.BIT\[2\].OBUF0 SLICE\[3\].RAM8.WORD\[5\].W.BYTE\[6\].B.BIT\[2\].OBUF1/A
+ SLICE\[3\].RAM8.WORD\[5\].W.BYTE\[6\].B.SEL0INV/Y VGND VGND VPWR VPWR BYTE\[6\].FLOATBUF0\[50\]/Z
+ sky130_fd_sc_hd__ebufn_2
Xfill_9_12 VGND VPWR sky130_fd_sc_hd__tapvpwrvgnd_1
Xfill_9_23 VGND VGND VPWR VPWR sky130_fd_sc_hd__decap_12
XSLICE\[0\].RAM8.WORD\[3\].W.BYTE\[2\].B.BIT\[7\].genblk1.STORAGE DIBUF\[23\]/X SLICE\[0\].RAM8.WORD\[3\].W.BYTE\[2\].B.genblk1.CG/GCLK
+ VGND VGND VPWR VPWR SLICE\[0\].RAM8.WORD\[3\].W.BYTE\[2\].B.BIT\[7\].OBUF1/A sky130_fd_sc_hd__dlxtp_1
XSLICE\[2\].RAM8.WORD\[4\].W.BYTE\[1\].B.DIODE_CLK SLICE\[2\].RAM8.WORD\[4\].W.CLKBUF/X
+ VGND VGND VPWR VPWR sky130_fd_sc_hd__diode_2
XSLICE\[2\].RAM8.CLKBUF CLKBUF/X VGND VGND VPWR VPWR SLICE\[2\].RAM8.CLKBUF/X sky130_fd_sc_hd__clkbuf_2
XSLICE\[0\].RAM8.WORD\[1\].W.BYTE\[5\].B.BIT\[4\].OBUF1 SLICE\[0\].RAM8.WORD\[1\].W.BYTE\[5\].B.BIT\[4\].OBUF1/A
+ SLICE\[0\].RAM8.WORD\[1\].W.BYTE\[5\].B.SEL1INV/Y VGND VGND VPWR VPWR BYTE\[5\].FLOATBUF1\[44\]/Z
+ sky130_fd_sc_hd__ebufn_2
XSLICE\[2\].RAM8.WORD\[6\].W.BYTE\[2\].B.BIT\[0\].OBUF1 SLICE\[2\].RAM8.WORD\[6\].W.BYTE\[2\].B.BIT\[0\].OBUF1/A
+ SLICE\[2\].RAM8.WORD\[6\].W.BYTE\[2\].B.SEL1INV/Y VGND VGND VPWR VPWR BYTE\[2\].FLOATBUF1\[16\]/Z
+ sky130_fd_sc_hd__ebufn_2
XSLICE\[2\].RAM8.WORD\[6\].W.BYTE\[0\].B.BIT\[1\].OBUF0 SLICE\[2\].RAM8.WORD\[6\].W.BYTE\[0\].B.BIT\[1\].OBUF1/A
+ SLICE\[2\].RAM8.WORD\[6\].W.BYTE\[0\].B.SEL0INV/Y VGND VGND VPWR VPWR BYTE\[0\].FLOATBUF0\[1\]/Z
+ sky130_fd_sc_hd__ebufn_2
XSLICE\[0\].RAM8.WORD\[1\].W.BYTE\[3\].B.BIT\[5\].OBUF0 SLICE\[0\].RAM8.WORD\[1\].W.BYTE\[3\].B.BIT\[5\].OBUF1/A
+ SLICE\[0\].RAM8.WORD\[1\].W.BYTE\[3\].B.SEL0INV/Y VGND VGND VPWR VPWR BYTE\[3\].FLOATBUF0\[29\]/Z
+ sky130_fd_sc_hd__ebufn_2
XSLICE\[0\].RAM8.WORD\[1\].W.BYTE\[0\].B.BIT\[6\].genblk1.STORAGE DIBUF\[6\]/X SLICE\[0\].RAM8.WORD\[1\].W.BYTE\[0\].B.genblk1.CG/GCLK
+ VGND VGND VPWR VPWR SLICE\[0\].RAM8.WORD\[1\].W.BYTE\[0\].B.BIT\[6\].OBUF1/A sky130_fd_sc_hd__dlxtp_1
Xtap_34_112 VGND VPWR sky130_fd_sc_hd__tapvpwrvgnd_1
Xtap_34_101 VGND VPWR sky130_fd_sc_hd__tapvpwrvgnd_1
XSLICE\[2\].RAM8.DEC1.AND0 SLICE\[2\].RAM8.DEC1.AND7/A SLICE\[2\].RAM8.DEC1.AND7/B
+ SLICE\[2\].RAM8.DEC1.AND7/C SLICE\[2\].RAM8.DEC1.AND7/D VGND VGND VPWR VPWR SLICE\[2\].RAM8.DEC1.AND0/Y
+ sky130_fd_sc_hd__nor4b_2
Xtap_34_123 VGND VPWR sky130_fd_sc_hd__tapvpwrvgnd_1
XSLICE\[3\].RAM8.WORD\[2\].W.BYTE\[5\].B.BIT\[6\].OBUF1 SLICE\[3\].RAM8.WORD\[2\].W.BYTE\[5\].B.BIT\[6\].OBUF1/A
+ SLICE\[3\].RAM8.WORD\[2\].W.BYTE\[5\].B.SEL1INV/Y VGND VGND VPWR VPWR BYTE\[5\].FLOATBUF1\[46\]/Z
+ sky130_fd_sc_hd__ebufn_2
XSLICE\[2\].RAM8.WORD\[0\].W.BYTE\[7\].B.BIT\[0\].OBUF1 SLICE\[2\].RAM8.WORD\[0\].W.BYTE\[7\].B.BIT\[0\].OBUF1/A
+ SLICE\[2\].RAM8.WORD\[0\].W.BYTE\[7\].B.SEL1INV/Y VGND VGND VPWR VPWR BYTE\[7\].FLOATBUF1\[56\]/Z
+ sky130_fd_sc_hd__ebufn_2
XSLICE\[0\].RAM8.DEC1.ENBUF DEC1.AND0/Y VGND VGND VPWR VPWR SLICE\[0\].RAM8.DEC1.AND7/D
+ sky130_fd_sc_hd__clkbuf_2
Xfill_29_1 VGND VGND VPWR VPWR sky130_fd_sc_hd__decap_4
XSLICE\[3\].RAM8.WORD\[2\].W.BYTE\[3\].B.BIT\[7\].OBUF0 SLICE\[3\].RAM8.WORD\[2\].W.BYTE\[3\].B.BIT\[7\].OBUF1/A
+ SLICE\[3\].RAM8.WORD\[2\].W.BYTE\[3\].B.SEL0INV/Y VGND VGND VPWR VPWR BYTE\[3\].FLOATBUF0\[31\]/Z
+ sky130_fd_sc_hd__ebufn_2
XSLICE\[2\].RAM8.WORD\[0\].W.BYTE\[5\].B.BIT\[1\].OBUF0 SLICE\[2\].RAM8.WORD\[0\].W.BYTE\[5\].B.BIT\[1\].OBUF1/A
+ SLICE\[2\].RAM8.WORD\[0\].W.BYTE\[5\].B.SEL0INV/Y VGND VGND VPWR VPWR BYTE\[5\].FLOATBUF0\[41\]/Z
+ sky130_fd_sc_hd__ebufn_2
XSLICE\[2\].RAM8.WEBUF\[7\] WEBUF\[7\]/X VGND VGND VPWR VPWR SLICE\[2\].RAM8.WEBUF\[7\]/X
+ sky130_fd_sc_hd__clkbuf_2
XSLICE\[3\].RAM8.WORD\[3\].W.BYTE\[7\].B.BIT\[3\].genblk1.STORAGE DIBUF\[59\]/X SLICE\[3\].RAM8.WORD\[3\].W.BYTE\[7\].B.genblk1.CG/GCLK
+ VGND VGND VPWR VPWR SLICE\[3\].RAM8.WORD\[3\].W.BYTE\[7\].B.BIT\[3\].OBUF1/A sky130_fd_sc_hd__dlxtp_1
XSLICE\[3\].RAM8.WORD\[7\].W.BYTE\[4\].B.BIT\[1\].genblk1.STORAGE DIBUF\[33\]/X SLICE\[3\].RAM8.WORD\[7\].W.BYTE\[4\].B.genblk1.CG/GCLK
+ VGND VGND VPWR VPWR SLICE\[3\].RAM8.WORD\[7\].W.BYTE\[4\].B.BIT\[1\].OBUF1/A sky130_fd_sc_hd__dlxtp_1
XSLICE\[3\].RAM8.WORD\[1\].W.BYTE\[5\].B.BIT\[2\].genblk1.STORAGE DIBUF\[42\]/X SLICE\[3\].RAM8.WORD\[1\].W.BYTE\[5\].B.genblk1.CG/GCLK
+ VGND VGND VPWR VPWR SLICE\[3\].RAM8.WORD\[1\].W.BYTE\[5\].B.BIT\[2\].OBUF1/A sky130_fd_sc_hd__dlxtp_1
Xtap_10_15 VGND VPWR sky130_fd_sc_hd__tapvpwrvgnd_1
Xtap_10_26 VGND VPWR sky130_fd_sc_hd__tapvpwrvgnd_1
Xtap_10_37 VGND VPWR sky130_fd_sc_hd__tapvpwrvgnd_1
XSLICE\[0\].RAM8.WORD\[3\].W.BYTE\[2\].B.genblk1.CG SLICE\[0\].RAM8.WORD\[3\].W.BYTE\[2\].B.genblk1.CG/CLK
+ SLICE\[0\].RAM8.WORD\[3\].W.BYTE\[2\].B.CGAND/X VGND VGND VPWR VPWR SLICE\[0\].RAM8.WORD\[3\].W.BYTE\[2\].B.genblk1.CG/GCLK
+ sky130_fd_sc_hd__dlclkp_1
Xtap_10_48 VGND VPWR sky130_fd_sc_hd__tapvpwrvgnd_1
Xtap_10_59 VGND VPWR sky130_fd_sc_hd__tapvpwrvgnd_1
XSLICE\[3\].RAM8.WORD\[5\].W.BYTE\[2\].B.BIT\[0\].genblk1.STORAGE DIBUF\[16\]/X SLICE\[3\].RAM8.WORD\[5\].W.BYTE\[2\].B.genblk1.CG/GCLK
+ VGND VGND VPWR VPWR SLICE\[3\].RAM8.WORD\[5\].W.BYTE\[2\].B.BIT\[0\].OBUF1/A sky130_fd_sc_hd__dlxtp_1
Xtap_19_13 VGND VPWR sky130_fd_sc_hd__tapvpwrvgnd_1
XSLICE\[1\].RAM8.WORD\[5\].W.BYTE\[4\].B.BIT\[2\].OBUF1 SLICE\[1\].RAM8.WORD\[5\].W.BYTE\[4\].B.BIT\[2\].OBUF1/A
+ SLICE\[1\].RAM8.WORD\[5\].W.BYTE\[4\].B.SEL1INV/Y VGND VGND VPWR VPWR BYTE\[4\].FLOATBUF1\[34\]/Z
+ sky130_fd_sc_hd__ebufn_2
Xtap_19_57 VGND VPWR sky130_fd_sc_hd__tapvpwrvgnd_1
Xtap_19_46 VGND VPWR sky130_fd_sc_hd__tapvpwrvgnd_1
Xtap_19_35 VGND VPWR sky130_fd_sc_hd__tapvpwrvgnd_1
Xtap_19_24 VGND VPWR sky130_fd_sc_hd__tapvpwrvgnd_1
XSLICE\[1\].RAM8.WORD\[5\].W.BYTE\[2\].B.BIT\[3\].OBUF0 SLICE\[1\].RAM8.WORD\[5\].W.BYTE\[2\].B.BIT\[3\].OBUF1/A
+ SLICE\[1\].RAM8.WORD\[5\].W.BYTE\[2\].B.SEL0INV/Y VGND VGND VPWR VPWR BYTE\[2\].FLOATBUF0\[19\]/Z
+ sky130_fd_sc_hd__ebufn_2
Xtap_19_68 VGND VPWR sky130_fd_sc_hd__tapvpwrvgnd_1
XSLICE\[1\].RAM8.WORD\[0\].W.BYTE\[4\].B.genblk1.CLKINV SLICE\[1\].RAM8.WORD\[0\].W.CLKBUF/X
+ VGND VGND VPWR VPWR SLICE\[1\].RAM8.WORD\[0\].W.BYTE\[4\].B.genblk1.CG/CLK sky130_fd_sc_hd__inv_1
XSLICE\[2\].RAM8.WORD\[5\].W.BYTE\[6\].B.SEL0INV SLICE\[2\].RAM8.WORD\[5\].W.SEL0BUF/X
+ VGND VGND VPWR VPWR SLICE\[2\].RAM8.WORD\[5\].W.BYTE\[6\].B.SEL0INV/Y sky130_fd_sc_hd__inv_1
Xtap_1_5 VGND VPWR sky130_fd_sc_hd__tapvpwrvgnd_1
XSLICE\[0\].RAM8.WORD\[7\].W.BYTE\[7\].B.BIT\[0\].OBUF0 SLICE\[0\].RAM8.WORD\[7\].W.BYTE\[7\].B.BIT\[0\].OBUF1/A
+ SLICE\[0\].RAM8.WORD\[7\].W.BYTE\[7\].B.SEL0INV/Y VGND VGND VPWR VPWR BYTE\[7\].FLOATBUF0\[56\]/Z
+ sky130_fd_sc_hd__ebufn_2
XSLICE\[0\].RAM8.WORD\[5\].W.BYTE\[1\].B.SEL0INV SLICE\[0\].RAM8.WORD\[5\].W.SEL0BUF/X
+ VGND VGND VPWR VPWR SLICE\[0\].RAM8.WORD\[5\].W.BYTE\[1\].B.SEL0INV/Y sky130_fd_sc_hd__inv_1
XDo0_REG.OUTREG_BYTE\[7\].Do_FF\[2\] Do0_REG.Do_CLKBUF\[7\]/X BYTE\[7\].FLOATBUF0\[58\]/Z
+ VGND VGND VPWR VPWR Do0[58] sky130_fd_sc_hd__dfxtp_1
Xfill_23_22 VGND VGND VPWR VPWR sky130_fd_sc_hd__decap_12
Xfill_23_11 VGND VPWR sky130_fd_sc_hd__tapvpwrvgnd_1
XSLICE\[0\].RAM8.WORD\[0\].W.BYTE\[3\].B.BIT\[1\].OBUF1 SLICE\[0\].RAM8.WORD\[0\].W.BYTE\[3\].B.BIT\[1\].OBUF1/A
+ SLICE\[0\].RAM8.WORD\[0\].W.BYTE\[3\].B.SEL1INV/Y VGND VGND VPWR VPWR BYTE\[3\].FLOATBUF1\[25\]/Z
+ sky130_fd_sc_hd__ebufn_2
XSLICE\[1\].RAM8.WORD\[2\].W.BYTE\[1\].B.BIT\[7\].OBUF1 SLICE\[1\].RAM8.WORD\[2\].W.BYTE\[1\].B.BIT\[7\].OBUF1/A
+ SLICE\[1\].RAM8.WORD\[2\].W.BYTE\[1\].B.SEL1INV/Y VGND VGND VPWR VPWR BYTE\[1\].FLOATBUF1\[15\]/Z
+ sky130_fd_sc_hd__ebufn_2
Xfill_23_33 VGND VGND VPWR VPWR sky130_fd_sc_hd__decap_12
XSLICE\[0\].RAM8.WORD\[0\].W.BYTE\[1\].B.BIT\[2\].OBUF0 SLICE\[0\].RAM8.WORD\[0\].W.BYTE\[1\].B.BIT\[2\].OBUF1/A
+ SLICE\[0\].RAM8.WORD\[0\].W.BYTE\[1\].B.SEL0INV/Y VGND VGND VPWR VPWR BYTE\[1\].FLOATBUF0\[10\]/Z
+ sky130_fd_sc_hd__ebufn_2
Xtap_6_60 VGND VPWR sky130_fd_sc_hd__tapvpwrvgnd_1
XBYTE\[1\].FLOATBUF0\[14\] TIE0\[1\]/LO FBUFENBUF0\[1\]/X VGND VGND VPWR VPWR BYTE\[1\].FLOATBUF0\[14\]/Z
+ sky130_fd_sc_hd__ebufn_2
Xtap_6_71 VGND VPWR sky130_fd_sc_hd__tapvpwrvgnd_1
XSLICE\[2\].RAM8.WORD\[4\].W.BYTE\[4\].B.BIT\[7\].genblk1.STORAGE DIBUF\[39\]/X SLICE\[2\].RAM8.WORD\[4\].W.BYTE\[4\].B.genblk1.CG/GCLK
+ VGND VGND VPWR VPWR SLICE\[2\].RAM8.WORD\[4\].W.BYTE\[4\].B.BIT\[7\].OBUF1/A sky130_fd_sc_hd__dlxtp_1
XSLICE\[3\].RAM8.WORD\[1\].W.BYTE\[3\].B.BIT\[3\].OBUF1 SLICE\[3\].RAM8.WORD\[1\].W.BYTE\[3\].B.BIT\[3\].OBUF1/A
+ SLICE\[3\].RAM8.WORD\[1\].W.BYTE\[3\].B.SEL1INV/Y VGND VGND VPWR VPWR BYTE\[3\].FLOATBUF1\[27\]/Z
+ sky130_fd_sc_hd__ebufn_2
XSLICE\[0\].RAM8.WORD\[4\].W.BYTE\[4\].B.BIT\[5\].OBUF0 SLICE\[0\].RAM8.WORD\[4\].W.BYTE\[4\].B.BIT\[5\].OBUF1/A
+ SLICE\[0\].RAM8.WORD\[4\].W.BYTE\[4\].B.SEL0INV/Y VGND VGND VPWR VPWR BYTE\[4\].FLOATBUF0\[37\]/Z
+ sky130_fd_sc_hd__ebufn_2
XSLICE\[0\].RAM8.WORD\[4\].W.BYTE\[6\].B.BIT\[4\].OBUF1 SLICE\[0\].RAM8.WORD\[4\].W.BYTE\[6\].B.BIT\[4\].OBUF1/A
+ SLICE\[0\].RAM8.WORD\[4\].W.BYTE\[6\].B.SEL1INV/Y VGND VGND VPWR VPWR BYTE\[6\].FLOATBUF1\[52\]/Z
+ sky130_fd_sc_hd__ebufn_2
XSLICE\[1\].RAM8.WORD\[7\].W.BYTE\[5\].B.CGAND SLICE\[1\].RAM8.WORD\[7\].W.SEL0BUF/X
+ SLICE\[1\].RAM8.WEBUF\[5\]/X VGND VGND VPWR VPWR SLICE\[1\].RAM8.WORD\[7\].W.BYTE\[5\].B.CGAND/X
+ sky130_fd_sc_hd__and2_1
XSLICE\[3\].RAM8.WORD\[1\].W.BYTE\[1\].B.BIT\[4\].OBUF0 SLICE\[3\].RAM8.WORD\[1\].W.BYTE\[1\].B.BIT\[4\].OBUF1/A
+ SLICE\[3\].RAM8.WORD\[1\].W.BYTE\[1\].B.SEL0INV/Y VGND VGND VPWR VPWR BYTE\[1\].FLOATBUF0\[12\]/Z
+ sky130_fd_sc_hd__ebufn_2
XSLICE\[2\].RAM8.WORD\[6\].W.BYTE\[7\].B.genblk1.CG SLICE\[2\].RAM8.WORD\[6\].W.BYTE\[7\].B.genblk1.CG/CLK
+ SLICE\[2\].RAM8.WORD\[6\].W.BYTE\[7\].B.CGAND/X VGND VGND VPWR VPWR SLICE\[2\].RAM8.WORD\[6\].W.BYTE\[7\].B.genblk1.CG/GCLK
+ sky130_fd_sc_hd__dlclkp_1
XSLICE\[1\].RAM8.WORD\[5\].W.BYTE\[6\].B.BIT\[3\].genblk1.STORAGE DIBUF\[51\]/X SLICE\[1\].RAM8.WORD\[5\].W.BYTE\[6\].B.genblk1.CG/GCLK
+ VGND VGND VPWR VPWR SLICE\[1\].RAM8.WORD\[5\].W.BYTE\[6\].B.BIT\[3\].OBUF1/A sky130_fd_sc_hd__dlxtp_1
XSLICE\[2\].RAM8.WORD\[2\].W.BYTE\[2\].B.BIT\[6\].genblk1.STORAGE DIBUF\[22\]/X SLICE\[2\].RAM8.WORD\[2\].W.BYTE\[2\].B.genblk1.CG/GCLK
+ VGND VGND VPWR VPWR SLICE\[2\].RAM8.WORD\[2\].W.BYTE\[2\].B.BIT\[6\].OBUF1/A sky130_fd_sc_hd__dlxtp_1
XSLICE\[3\].RAM8.WORD\[5\].W.BYTE\[6\].B.BIT\[6\].OBUF1 SLICE\[3\].RAM8.WORD\[5\].W.BYTE\[6\].B.BIT\[6\].OBUF1/A
+ SLICE\[3\].RAM8.WORD\[5\].W.BYTE\[6\].B.SEL1INV/Y VGND VGND VPWR VPWR BYTE\[6\].FLOATBUF1\[54\]/Z
+ sky130_fd_sc_hd__ebufn_2
XSLICE\[1\].RAM8.WORD\[1\].W.BYTE\[5\].B.SEL0INV SLICE\[1\].RAM8.WORD\[1\].W.SEL0BUF/X
+ VGND VGND VPWR VPWR SLICE\[1\].RAM8.WORD\[1\].W.BYTE\[5\].B.SEL0INV/Y sky130_fd_sc_hd__inv_1
XSLICE\[3\].RAM8.WORD\[5\].W.BYTE\[4\].B.BIT\[7\].OBUF0 SLICE\[3\].RAM8.WORD\[5\].W.BYTE\[4\].B.BIT\[7\].OBUF1/A
+ SLICE\[3\].RAM8.WORD\[5\].W.BYTE\[4\].B.SEL0INV/Y VGND VGND VPWR VPWR BYTE\[4\].FLOATBUF0\[39\]/Z
+ sky130_fd_sc_hd__ebufn_2
XSLICE\[2\].RAM8.WORD\[3\].W.BYTE\[6\].B.BIT\[1\].OBUF0 SLICE\[2\].RAM8.WORD\[3\].W.BYTE\[6\].B.BIT\[1\].OBUF1/A
+ SLICE\[2\].RAM8.WORD\[3\].W.BYTE\[6\].B.SEL0INV/Y VGND VGND VPWR VPWR BYTE\[6\].FLOATBUF0\[49\]/Z
+ sky130_fd_sc_hd__ebufn_2
XSLICE\[1\].RAM8.WORD\[3\].W.BYTE\[4\].B.BIT\[2\].genblk1.STORAGE DIBUF\[34\]/X SLICE\[1\].RAM8.WORD\[3\].W.BYTE\[4\].B.genblk1.CG/GCLK
+ VGND VGND VPWR VPWR SLICE\[1\].RAM8.WORD\[3\].W.BYTE\[4\].B.BIT\[2\].OBUF1/A sky130_fd_sc_hd__dlxtp_1
Xfill_22_8 VGND VGND VPWR VPWR sky130_fd_sc_hd__decap_12
XSLICE\[2\].RAM8.WORD\[0\].W.BYTE\[0\].B.BIT\[5\].genblk1.STORAGE DIBUF\[5\]/X SLICE\[2\].RAM8.WORD\[0\].W.BYTE\[0\].B.genblk1.CG/GCLK
+ VGND VGND VPWR VPWR SLICE\[2\].RAM8.WORD\[0\].W.BYTE\[0\].B.BIT\[5\].OBUF1/A sky130_fd_sc_hd__dlxtp_1
Xfill_15_7 VGND VPWR sky130_fd_sc_hd__tapvpwrvgnd_1
XBYTE\[5\].FLOATBUF0\[45\] TIE0\[5\]/LO FBUFENBUF0\[5\]/X VGND VGND VPWR VPWR BYTE\[5\].FLOATBUF0\[45\]/Z
+ sky130_fd_sc_hd__ebufn_2
XSLICE\[1\].RAM8.WORD\[7\].W.BYTE\[1\].B.BIT\[0\].genblk1.STORAGE DIBUF\[8\]/X SLICE\[1\].RAM8.WORD\[7\].W.BYTE\[1\].B.genblk1.CG/GCLK
+ VGND VGND VPWR VPWR SLICE\[1\].RAM8.WORD\[7\].W.BYTE\[1\].B.BIT\[0\].OBUF1/A sky130_fd_sc_hd__dlxtp_1
XSLICE\[2\].RAM8.WORD\[6\].W.BYTE\[0\].B.BIT\[5\].OBUF1 SLICE\[2\].RAM8.WORD\[6\].W.BYTE\[0\].B.BIT\[5\].OBUF1/A
+ SLICE\[2\].RAM8.WORD\[6\].W.BYTE\[0\].B.SEL1INV/Y VGND VGND VPWR VPWR BYTE\[0\].FLOATBUF1\[5\]/Z
+ sky130_fd_sc_hd__ebufn_2
XSLICE\[1\].RAM8.WORD\[1\].W.BYTE\[2\].B.BIT\[1\].genblk1.STORAGE DIBUF\[17\]/X SLICE\[1\].RAM8.WORD\[1\].W.BYTE\[2\].B.genblk1.CG/GCLK
+ VGND VGND VPWR VPWR SLICE\[1\].RAM8.WORD\[1\].W.BYTE\[2\].B.BIT\[1\].OBUF1/A sky130_fd_sc_hd__dlxtp_1
XSLICE\[1\].RAM8.WORD\[4\].W.BYTE\[0\].B.BIT\[0\].OBUF0 SLICE\[1\].RAM8.WORD\[4\].W.BYTE\[0\].B.BIT\[0\].OBUF1/A
+ SLICE\[1\].RAM8.WORD\[4\].W.BYTE\[0\].B.SEL0INV/Y VGND VGND VPWR VPWR BYTE\[0\].FLOATBUF0\[0\]/Z
+ sky130_fd_sc_hd__ebufn_2
XSLICE\[1\].RAM8.WORD\[6\].W.BYTE\[7\].B.SEL1INV SLICE\[1\].RAM8.WORD\[6\].W.SEL1BUF/X
+ VGND VGND VPWR VPWR SLICE\[1\].RAM8.WORD\[6\].W.BYTE\[7\].B.SEL1INV/Y sky130_fd_sc_hd__inv_1
XDo1_REG.OUTREG_BYTE\[2\].DIODE\[2\] BYTE\[2\].FLOATBUF1\[18\]/Z VGND VGND VPWR VPWR
+ sky130_fd_sc_hd__diode_2
XSLICE\[3\].RAM8.WORD\[4\].W.BYTE\[7\].B.CGAND SLICE\[3\].RAM8.WORD\[4\].W.SEL0BUF/X
+ SLICE\[3\].RAM8.WEBUF\[7\]/X VGND VGND VPWR VPWR SLICE\[3\].RAM8.WORD\[4\].W.BYTE\[7\].B.CGAND/X
+ sky130_fd_sc_hd__and2_1
XSLICE\[2\].RAM8.WORD\[0\].W.BYTE\[5\].B.BIT\[5\].OBUF1 SLICE\[2\].RAM8.WORD\[0\].W.BYTE\[5\].B.BIT\[5\].OBUF1/A
+ SLICE\[2\].RAM8.WORD\[0\].W.BYTE\[5\].B.SEL1INV/Y VGND VGND VPWR VPWR BYTE\[5\].FLOATBUF1\[45\]/Z
+ sky130_fd_sc_hd__ebufn_2
XSLICE\[3\].RAM8.WORD\[3\].W.BYTE\[2\].B.SEL1INV SLICE\[3\].RAM8.WORD\[3\].W.SEL1BUF/X
+ VGND VGND VPWR VPWR SLICE\[3\].RAM8.WORD\[3\].W.BYTE\[2\].B.SEL1INV/Y sky130_fd_sc_hd__inv_1
XSLICE\[2\].RAM8.WORD\[0\].W.BYTE\[3\].B.BIT\[6\].OBUF0 SLICE\[2\].RAM8.WORD\[0\].W.BYTE\[3\].B.BIT\[6\].OBUF1/A
+ SLICE\[2\].RAM8.WORD\[0\].W.BYTE\[3\].B.SEL0INV/Y VGND VGND VPWR VPWR BYTE\[3\].FLOATBUF0\[30\]/Z
+ sky130_fd_sc_hd__ebufn_2
Xtap_2_29 VGND VPWR sky130_fd_sc_hd__tapvpwrvgnd_1
Xtap_2_18 VGND VPWR sky130_fd_sc_hd__tapvpwrvgnd_1
XSLICE\[2\].RAM8.WORD\[1\].W.BYTE\[3\].B.genblk1.CG SLICE\[2\].RAM8.WORD\[1\].W.BYTE\[3\].B.genblk1.CG/CLK
+ SLICE\[2\].RAM8.WORD\[1\].W.BYTE\[3\].B.CGAND/X VGND VGND VPWR VPWR SLICE\[2\].RAM8.WORD\[1\].W.BYTE\[3\].B.genblk1.CG/GCLK
+ sky130_fd_sc_hd__dlclkp_1
XSLICE\[1\].RAM8.WORD\[3\].W.BYTE\[5\].B.genblk1.CLKINV SLICE\[1\].RAM8.WORD\[3\].W.CLKBUF/X
+ VGND VGND VPWR VPWR SLICE\[1\].RAM8.WORD\[3\].W.BYTE\[5\].B.genblk1.CG/CLK sky130_fd_sc_hd__inv_1
XSLICE\[3\].RAM8.WORD\[1\].W.BYTE\[5\].B.DIODE_CLK SLICE\[3\].RAM8.WORD\[1\].W.CLKBUF/X
+ VGND VGND VPWR VPWR sky130_fd_sc_hd__diode_2
XSLICE\[2\].RAM8.WORD\[7\].W.BYTE\[4\].B.DIODE_CLK SLICE\[2\].RAM8.WORD\[7\].W.CLKBUF/X
+ VGND VGND VPWR VPWR sky130_fd_sc_hd__diode_2
XSLICE\[0\].RAM8.WORD\[6\].W.BYTE\[3\].B.BIT\[7\].genblk1.STORAGE DIBUF\[31\]/X SLICE\[0\].RAM8.WORD\[6\].W.BYTE\[3\].B.genblk1.CG/GCLK
+ VGND VGND VPWR VPWR SLICE\[0\].RAM8.WORD\[6\].W.BYTE\[3\].B.BIT\[7\].OBUF1/A sky130_fd_sc_hd__dlxtp_1
XSLICE\[1\].RAM8.WORD\[5\].W.BYTE\[2\].B.BIT\[7\].OBUF1 SLICE\[1\].RAM8.WORD\[5\].W.BYTE\[2\].B.BIT\[7\].OBUF1/A
+ SLICE\[1\].RAM8.WORD\[5\].W.BYTE\[2\].B.SEL1INV/Y VGND VGND VPWR VPWR BYTE\[2\].FLOATBUF1\[23\]/Z
+ sky130_fd_sc_hd__ebufn_2
XSLICE\[3\].RAM8.WORD\[0\].W.BYTE\[1\].B.BIT\[0\].OBUF1 SLICE\[3\].RAM8.WORD\[0\].W.BYTE\[1\].B.BIT\[0\].OBUF1/A
+ SLICE\[3\].RAM8.WORD\[0\].W.BYTE\[1\].B.SEL1INV/Y VGND VGND VPWR VPWR BYTE\[1\].FLOATBUF1\[8\]/Z
+ sky130_fd_sc_hd__ebufn_2
Xtap_21_14 VGND VPWR sky130_fd_sc_hd__tapvpwrvgnd_1
XSLICE\[0\].RAM8.WORD\[3\].W.BYTE\[4\].B.BIT\[1\].OBUF1 SLICE\[0\].RAM8.WORD\[3\].W.BYTE\[4\].B.BIT\[1\].OBUF1/A
+ SLICE\[0\].RAM8.WORD\[3\].W.BYTE\[4\].B.SEL1INV/Y VGND VGND VPWR VPWR BYTE\[4\].FLOATBUF1\[33\]/Z
+ sky130_fd_sc_hd__ebufn_2
XSLICE\[0\].RAM8.WORD\[3\].W.BYTE\[2\].B.BIT\[2\].OBUF0 SLICE\[0\].RAM8.WORD\[3\].W.BYTE\[2\].B.BIT\[2\].OBUF1/A
+ SLICE\[0\].RAM8.WORD\[3\].W.BYTE\[2\].B.SEL0INV/Y VGND VGND VPWR VPWR BYTE\[2\].FLOATBUF0\[18\]/Z
+ sky130_fd_sc_hd__ebufn_2
XSLICE\[0\].RAM8.WORD\[2\].W.BYTE\[6\].B.SEL1INV SLICE\[0\].RAM8.WORD\[2\].W.SEL1BUF/X
+ VGND VGND VPWR VPWR SLICE\[0\].RAM8.WORD\[2\].W.BYTE\[6\].B.SEL1INV/Y sky130_fd_sc_hd__inv_1
Xtap_21_47 VGND VPWR sky130_fd_sc_hd__tapvpwrvgnd_1
Xtap_21_36 VGND VPWR sky130_fd_sc_hd__tapvpwrvgnd_1
Xtap_21_25 VGND VPWR sky130_fd_sc_hd__tapvpwrvgnd_1
Xtap_21_69 VGND VPWR sky130_fd_sc_hd__tapvpwrvgnd_1
Xtap_21_58 VGND VPWR sky130_fd_sc_hd__tapvpwrvgnd_1
XSLICE\[0\].RAM8.WORD\[4\].W.BYTE\[1\].B.BIT\[6\].genblk1.STORAGE DIBUF\[14\]/X SLICE\[0\].RAM8.WORD\[4\].W.BYTE\[1\].B.genblk1.CG/GCLK
+ VGND VGND VPWR VPWR SLICE\[0\].RAM8.WORD\[4\].W.BYTE\[1\].B.BIT\[6\].OBUF1/A sky130_fd_sc_hd__dlxtp_1
XSLICE\[3\].RAM8.WORD\[4\].W.BYTE\[4\].B.BIT\[3\].OBUF1 SLICE\[3\].RAM8.WORD\[4\].W.BYTE\[4\].B.BIT\[3\].OBUF1/A
+ SLICE\[3\].RAM8.WORD\[4\].W.BYTE\[4\].B.SEL1INV/Y VGND VGND VPWR VPWR BYTE\[4\].FLOATBUF1\[35\]/Z
+ sky130_fd_sc_hd__ebufn_2
XSLICE\[0\].RAM8.WORD\[7\].W.BYTE\[5\].B.BIT\[5\].OBUF0 SLICE\[0\].RAM8.WORD\[7\].W.BYTE\[5\].B.BIT\[5\].OBUF1/A
+ SLICE\[0\].RAM8.WORD\[7\].W.BYTE\[5\].B.SEL0INV/Y VGND VGND VPWR VPWR BYTE\[5\].FLOATBUF0\[45\]/Z
+ sky130_fd_sc_hd__ebufn_2
XSLICE\[0\].RAM8.WORD\[7\].W.BYTE\[7\].B.BIT\[4\].OBUF1 SLICE\[0\].RAM8.WORD\[7\].W.BYTE\[7\].B.BIT\[4\].OBUF1/A
+ SLICE\[0\].RAM8.WORD\[7\].W.BYTE\[7\].B.SEL1INV/Y VGND VGND VPWR VPWR BYTE\[7\].FLOATBUF1\[60\]/Z
+ sky130_fd_sc_hd__ebufn_2
XSLICE\[3\].RAM8.WORD\[4\].W.BYTE\[2\].B.BIT\[4\].OBUF0 SLICE\[3\].RAM8.WORD\[4\].W.BYTE\[2\].B.BIT\[4\].OBUF1/A
+ SLICE\[3\].RAM8.WORD\[4\].W.BYTE\[2\].B.SEL0INV/Y VGND VGND VPWR VPWR BYTE\[2\].FLOATBUF0\[20\]/Z
+ sky130_fd_sc_hd__ebufn_2
XDo0_REG.OUTREG_BYTE\[4\].DIODE\[5\] BYTE\[4\].FLOATBUF0\[37\]/Z VGND VGND VPWR VPWR
+ sky130_fd_sc_hd__diode_2
XSLICE\[2\].RAM8.WORD\[6\].W.BYTE\[7\].B.BIT\[1\].OBUF0 SLICE\[2\].RAM8.WORD\[6\].W.BYTE\[7\].B.BIT\[1\].OBUF1/A
+ SLICE\[2\].RAM8.WORD\[6\].W.BYTE\[7\].B.SEL0INV/Y VGND VGND VPWR VPWR BYTE\[7\].FLOATBUF0\[57\]/Z
+ sky130_fd_sc_hd__ebufn_2
Xfill_18_11 VGND VGND VPWR VPWR sky130_fd_sc_hd__decap_12
XSLICE\[0\].RAM8.WORD\[0\].W.BYTE\[1\].B.BIT\[6\].OBUF1 SLICE\[0\].RAM8.WORD\[0\].W.BYTE\[1\].B.BIT\[6\].OBUF1/A
+ SLICE\[0\].RAM8.WORD\[0\].W.BYTE\[1\].B.SEL1INV/Y VGND VGND VPWR VPWR BYTE\[1\].FLOATBUF1\[14\]/Z
+ sky130_fd_sc_hd__ebufn_2
Xfill_18_33 VGND VPWR sky130_fd_sc_hd__tapvpwrvgnd_1
Xfill_18_22 VGND VGND VPWR VPWR sky130_fd_sc_hd__decap_12
XSLICE\[3\].RAM8.WORD\[4\].W.BYTE\[6\].B.BIT\[2\].genblk1.STORAGE DIBUF\[50\]/X SLICE\[3\].RAM8.WORD\[4\].W.BYTE\[6\].B.genblk1.CG/GCLK
+ VGND VGND VPWR VPWR SLICE\[3\].RAM8.WORD\[4\].W.BYTE\[6\].B.BIT\[2\].OBUF1/A sky130_fd_sc_hd__dlxtp_1
XSLICE\[1\].RAM8.WORD\[7\].W.BYTE\[1\].B.BIT\[0\].OBUF0 SLICE\[1\].RAM8.WORD\[7\].W.BYTE\[1\].B.BIT\[0\].OBUF1/A
+ SLICE\[1\].RAM8.WORD\[7\].W.BYTE\[1\].B.SEL0INV/Y VGND VGND VPWR VPWR BYTE\[1\].FLOATBUF0\[8\]/Z
+ sky130_fd_sc_hd__ebufn_2
XSLICE\[3\].RAM8.WORD\[2\].W.BYTE\[4\].B.BIT\[1\].genblk1.STORAGE DIBUF\[33\]/X SLICE\[3\].RAM8.WORD\[2\].W.BYTE\[4\].B.genblk1.CG/GCLK
+ VGND VGND VPWR VPWR SLICE\[3\].RAM8.WORD\[2\].W.BYTE\[4\].B.BIT\[1\].OBUF1/A sky130_fd_sc_hd__dlxtp_1